*SPEF "IEEE 1481-1998"
*DESIGN "MYFIR"
*DATE "Thu Nov 12 17:12:33 2020"
*VENDOR "Cadence Design Systems, Inc."
*PROGRAM "Innovus"
*VERSION "17.11-s080_1"
*DESIGN_FLOW "COUPLING C" "PIN_CAP NONE" "NAME_SCOPE LOCAL"
*DIVIDER /
*DELIMITER :
*BUS_DELIMITER []
*T_UNIT 1 NS
*C_UNIT 1 PF
*R_UNIT 1 OHM
*L_UNIT 1 HENRY

// MMMC spef file for corner 'my_rc'

*NAME_MAP

*1 FE_OFN3_RST_N
*2 FE_OFN2_DP_mult_77_G2_n247
*3 FE_OFN1_DP_mult_77_G3_n247
*4 FE_OFN0_DP_mult_77_n247
*5 DIN[10]
*6 DIN[9]
*7 DIN[8]
*8 DIN[7]
*9 DIN[6]
*10 DIN[5]
*11 DIN[4]
*12 DIN[3]
*13 DIN[2]
*14 DIN[1]
*15 DIN[0]
*16 H0[10]
*17 H0[9]
*18 H0[8]
*19 H0[7]
*20 H0[6]
*21 H0[5]
*22 H0[4]
*23 H0[3]
*24 H0[2]
*25 H0[1]
*26 H0[0]
*27 H1[10]
*28 H1[9]
*29 H1[8]
*30 H1[7]
*31 H1[6]
*32 H1[5]
*33 H1[4]
*34 H1[3]
*35 H1[2]
*36 H1[1]
*37 H1[0]
*38 H2[10]
*39 H2[9]
*40 H2[8]
*41 H2[7]
*42 H2[6]
*43 H2[5]
*44 H2[4]
*45 H2[3]
*46 H2[2]
*47 H2[1]
*48 H2[0]
*49 H3[10]
*50 H3[9]
*51 H3[8]
*52 H3[7]
*53 H3[6]
*54 H3[5]
*55 H3[4]
*56 H3[3]
*57 H3[2]
*58 H3[1]
*59 H3[0]
*60 H4[10]
*61 H4[9]
*62 H4[8]
*63 H4[7]
*64 H4[6]
*65 H4[5]
*66 H4[4]
*67 H4[3]
*68 H4[2]
*69 H4[1]
*70 H4[0]
*71 H5[10]
*72 H5[9]
*73 H5[8]
*74 H5[7]
*75 H5[6]
*76 H5[5]
*77 H5[4]
*78 H5[3]
*79 H5[2]
*80 H5[1]
*81 H5[0]
*82 H6[10]
*83 H6[9]
*84 H6[8]
*85 H6[7]
*86 H6[6]
*87 H6[5]
*88 H6[4]
*89 H6[3]
*90 H6[2]
*91 H6[1]
*92 H6[0]
*93 H7[10]
*94 H7[9]
*95 H7[8]
*96 H7[7]
*97 H7[6]
*98 H7[5]
*99 H7[4]
*100 H7[3]
*101 H7[2]
*102 H7[1]
*103 H7[0]
*104 H8[10]
*105 H8[9]
*106 H8[8]
*107 H8[7]
*108 H8[6]
*109 H8[5]
*110 H8[4]
*111 H8[3]
*112 H8[2]
*113 H8[1]
*114 H8[0]
*115 DOUT[10]
*116 DOUT[9]
*117 DOUT[8]
*118 DOUT[7]
*119 DOUT[6]
*120 DOUT[5]
*121 DOUT[4]
*122 DOUT[3]
*123 DOUT[2]
*124 DOUT[1]
*125 DOUT[0]
*126 RST_N
*127 CLK
*128 VIN
*129 VOUT
*130 ctrl_in_dp
*131 CU_n4
*132 CU_n3
*133 CU_n2
*134 CU_N17
*135 CU_N16
*136 DP_mult_0__10_
*137 DP_mult_0__11_
*138 DP_mult_0__12_
*139 DP_mult_0__13_
*140 DP_mult_0__14_
*141 DP_mult_0__7_
*142 DP_mult_0__8_
*143 DP_mult_0__9_
*144 DP_mult_1__10_
*145 DP_mult_1__11_
*146 DP_mult_1__12_
*147 DP_mult_1__13_
*148 DP_mult_1__14_
*149 DP_mult_1__7_
*150 DP_mult_1__8_
*151 DP_mult_1__9_
*152 DP_mult_2__10_
*153 DP_mult_2__11_
*154 DP_mult_2__12_
*155 DP_mult_2__13_
*156 DP_mult_2__14_
*157 DP_mult_2__7_
*158 DP_mult_2__8_
*159 DP_mult_2__9_
*160 DP_mult_3__10_
*161 DP_mult_3__11_
*162 DP_mult_3__12_
*163 DP_mult_3__13_
*164 DP_mult_3__14_
*165 DP_mult_3__7_
*166 DP_mult_3__8_
*167 DP_mult_3__9_
*168 DP_mult_4__10_
*169 DP_mult_4__11_
*170 DP_mult_4__12_
*171 DP_mult_4__13_
*172 DP_mult_4__14_
*173 DP_mult_4__7_
*174 DP_mult_4__8_
*175 DP_mult_4__9_
*176 DP_mult_5__10_
*177 DP_mult_5__11_
*178 DP_mult_5__12_
*179 DP_mult_5__13_
*180 DP_mult_5__14_
*181 DP_mult_5__7_
*182 DP_mult_5__8_
*183 DP_mult_5__9_
*184 DP_mult_6__10_
*185 DP_mult_6__11_
*186 DP_mult_6__12_
*187 DP_mult_6__13_
*188 DP_mult_6__14_
*189 DP_mult_6__7_
*190 DP_mult_6__8_
*191 DP_mult_6__9_
*192 DP_mult_7__10_
*193 DP_mult_7__11_
*194 DP_mult_7__12_
*195 DP_mult_7__13_
*196 DP_mult_7__14_
*197 DP_mult_7__7_
*198 DP_mult_7__8_
*199 DP_mult_7__9_
*200 DP_mult_8__10_
*201 DP_mult_8__11_
*202 DP_mult_8__12_
*203 DP_mult_8__13_
*204 DP_mult_8__14_
*205 DP_mult_8__7_
*206 DP_mult_8__8_
*207 DP_mult_8__9_
*208 DP_sum_0__0_
*209 DP_sum_0__1_
*210 DP_sum_0__2_
*211 DP_sum_0__3_
*212 DP_sum_0__4_
*213 DP_sum_0__5_
*214 DP_sum_0__6_
*215 DP_sum_0__7_
*216 DP_sum_1__0_
*217 DP_sum_1__1_
*218 DP_sum_1__2_
*219 DP_sum_1__3_
*220 DP_sum_1__4_
*221 DP_sum_1__5_
*222 DP_sum_1__6_
*223 DP_sum_1__7_
*224 DP_sum_2__0_
*225 DP_sum_2__1_
*226 DP_sum_2__2_
*227 DP_sum_2__3_
*228 DP_sum_2__4_
*229 DP_sum_2__5_
*230 DP_sum_2__6_
*231 DP_sum_2__7_
*232 DP_sum_3__0_
*233 DP_sum_3__1_
*234 DP_sum_3__2_
*235 DP_sum_3__3_
*236 DP_sum_3__4_
*237 DP_sum_3__5_
*238 DP_sum_3__6_
*239 DP_sum_3__7_
*240 DP_sum_4__0_
*241 DP_sum_4__1_
*242 DP_sum_4__2_
*243 DP_sum_4__3_
*244 DP_sum_4__4_
*245 DP_sum_4__5_
*246 DP_sum_4__6_
*247 DP_sum_4__7_
*248 DP_sum_5__0_
*249 DP_sum_5__1_
*250 DP_sum_5__2_
*251 DP_sum_5__3_
*252 DP_sum_5__4_
*253 DP_sum_5__5_
*254 DP_sum_5__6_
*255 DP_sum_5__7_
*256 DP_sum_6__0_
*257 DP_sum_6__1_
*258 DP_sum_6__2_
*259 DP_sum_6__3_
*260 DP_sum_6__4_
*261 DP_sum_6__5_
*262 DP_sum_6__6_
*263 DP_sum_6__7_
*264 DP_input_register_net57736
*265 DP_i_register_1_net57736
*266 DP_i_register_2_net57736
*267 DP_i_register_3_net57736
*268 DP_i_register_4_net57736
*269 DP_i_register_5_net57736
*270 DP_i_register_6_net57736
*271 DP_i_register_7_net57736
*272 DP_i_register_8_net57736
*273 DP_output_register_net57718
*274 DP_mult_77_n274
*275 DP_mult_77_n273
*276 DP_mult_77_n272
*277 DP_mult_77_n271
*278 DP_mult_77_n270
*279 DP_mult_77_n269
*280 DP_mult_77_n268
*281 DP_mult_77_n267
*282 DP_mult_77_n266
*283 DP_mult_77_n265
*284 DP_mult_77_n264
*285 DP_mult_77_n263
*286 DP_mult_77_n262
*287 DP_mult_77_n261
*288 DP_mult_77_n260
*289 DP_mult_77_n259
*290 DP_mult_77_n258
*291 DP_mult_77_n257
*292 DP_mult_77_n256
*293 DP_mult_77_n255
*294 DP_mult_77_n254
*295 DP_mult_77_n253
*296 DP_mult_77_n252
*297 DP_mult_77_n251
*298 DP_mult_77_n250
*299 DP_mult_77_n249
*300 DP_mult_77_n248
*301 DP_mult_77_n247
*302 DP_mult_77_n246
*303 DP_mult_77_n245
*304 DP_mult_77_n244
*305 DP_mult_77_n243
*306 DP_mult_77_n242
*307 DP_mult_77_n241
*308 DP_mult_77_n240
*309 DP_mult_77_n239
*310 DP_mult_77_n238
*311 DP_mult_77_n237
*312 DP_mult_77_n236
*313 DP_mult_77_n235
*314 DP_mult_77_n234
*315 DP_mult_77_n233
*316 DP_mult_77_n232
*317 DP_mult_77_n231
*318 DP_mult_77_n230
*319 DP_mult_77_n229
*320 DP_mult_77_n228
*321 DP_mult_77_n227
*322 DP_mult_77_n226
*323 DP_mult_77_n225
*324 DP_mult_77_n224
*325 DP_mult_77_n223
*326 DP_mult_77_n222
*327 DP_mult_77_n221
*328 DP_mult_77_n220
*329 DP_mult_77_n219
*330 DP_mult_77_n218
*331 DP_mult_77_n217
*332 DP_mult_77_n216
*333 DP_mult_77_n215
*334 DP_mult_77_n214
*335 DP_mult_77_n213
*336 DP_mult_77_n212
*337 DP_mult_77_n211
*338 DP_mult_77_n210
*339 DP_mult_77_n209
*340 DP_mult_77_n208
*341 DP_mult_77_n207
*342 DP_mult_77_n206
*343 DP_mult_77_n205
*344 DP_mult_77_n204
*345 DP_mult_77_n203
*346 DP_mult_77_n202
*347 DP_mult_77_n201
*348 DP_mult_77_n200
*349 DP_mult_77_n199
*350 DP_mult_77_n198
*351 DP_mult_77_n197
*352 DP_mult_77_n101
*353 DP_mult_77_n100
*354 DP_mult_77_n99
*355 DP_mult_77_n98
*356 DP_mult_77_n97
*357 DP_mult_77_n94
*358 DP_mult_77_n93
*359 DP_mult_77_n92
*360 DP_mult_77_n91
*361 DP_mult_77_n90
*362 DP_mult_77_n88
*363 DP_mult_77_n87
*364 DP_mult_77_n86
*365 DP_mult_77_n85
*366 DP_mult_77_n84
*367 DP_mult_77_n83
*368 DP_mult_77_n82
*369 DP_mult_77_n81
*370 DP_mult_77_n79
*371 DP_mult_77_n78
*372 DP_mult_77_n76
*373 DP_mult_77_n75
*374 DP_mult_77_n74
*375 DP_mult_77_n73
*376 DP_mult_77_n69
*377 DP_mult_77_n68
*378 DP_mult_77_n56
*379 DP_mult_77_n55
*380 DP_mult_77_n54
*381 DP_mult_77_n53
*382 DP_mult_77_n52
*383 DP_mult_77_n51
*384 DP_mult_77_n50
*385 DP_mult_77_n49
*386 DP_mult_77_n48
*387 DP_mult_77_n47
*388 DP_mult_77_n46
*389 DP_mult_77_n45
*390 DP_mult_77_n44
*391 DP_mult_77_n43
*392 DP_mult_77_n42
*393 DP_mult_77_n41
*394 DP_mult_77_n40
*395 DP_mult_77_n39
*396 DP_mult_77_n38
*397 DP_mult_77_n37
*398 DP_mult_77_n36
*399 DP_mult_77_n35
*400 DP_mult_77_n34
*401 DP_mult_77_n33
*402 DP_mult_77_n32
*403 DP_mult_77_n30
*404 DP_mult_77_n29
*405 DP_mult_77_n28
*406 DP_mult_77_n27
*407 DP_mult_77_n26
*408 DP_mult_77_n25
*409 DP_mult_77_n24
*410 DP_mult_77_n23
*411 DP_mult_77_n21
*412 DP_mult_77_n20
*413 DP_mult_77_n19
*414 DP_mult_77_n18
*415 DP_mult_77_n17
*416 DP_mult_77_n16
*417 DP_mult_77_n9
*418 DP_mult_77_n8
*419 DP_mult_77_n7
*420 DP_mult_77_n6
*421 DP_mult_77_n5
*422 DP_mult_77_n4
*423 DP_mult_77_n3
*424 DP_mult_77_n2
*425 DP_mult_77_G2_n274
*426 DP_mult_77_G2_n273
*427 DP_mult_77_G2_n272
*428 DP_mult_77_G2_n271
*429 DP_mult_77_G2_n270
*430 DP_mult_77_G2_n269
*431 DP_mult_77_G2_n268
*432 DP_mult_77_G2_n267
*433 DP_mult_77_G2_n266
*434 DP_mult_77_G2_n265
*435 DP_mult_77_G2_n264
*436 DP_mult_77_G2_n263
*437 DP_mult_77_G2_n262
*438 DP_mult_77_G2_n261
*439 DP_mult_77_G2_n260
*440 DP_mult_77_G2_n259
*441 DP_mult_77_G2_n258
*442 DP_mult_77_G2_n257
*443 DP_mult_77_G2_n256
*444 DP_mult_77_G2_n255
*445 DP_mult_77_G2_n254
*446 DP_mult_77_G2_n253
*447 DP_mult_77_G2_n252
*448 DP_mult_77_G2_n251
*449 DP_mult_77_G2_n250
*450 DP_mult_77_G2_n249
*451 DP_mult_77_G2_n248
*452 DP_mult_77_G2_n247
*453 DP_mult_77_G2_n246
*454 DP_mult_77_G2_n245
*455 DP_mult_77_G2_n244
*456 DP_mult_77_G2_n243
*457 DP_mult_77_G2_n242
*458 DP_mult_77_G2_n241
*459 DP_mult_77_G2_n240
*460 DP_mult_77_G2_n239
*461 DP_mult_77_G2_n238
*462 DP_mult_77_G2_n237
*463 DP_mult_77_G2_n236
*464 DP_mult_77_G2_n235
*465 DP_mult_77_G2_n234
*466 DP_mult_77_G2_n233
*467 DP_mult_77_G2_n232
*468 DP_mult_77_G2_n231
*469 DP_mult_77_G2_n230
*470 DP_mult_77_G2_n229
*471 DP_mult_77_G2_n228
*472 DP_mult_77_G2_n227
*473 DP_mult_77_G2_n226
*474 DP_mult_77_G2_n225
*475 DP_mult_77_G2_n224
*476 DP_mult_77_G2_n223
*477 DP_mult_77_G2_n222
*478 DP_mult_77_G2_n221
*479 DP_mult_77_G2_n220
*480 DP_mult_77_G2_n219
*481 DP_mult_77_G2_n218
*482 DP_mult_77_G2_n217
*483 DP_mult_77_G2_n216
*484 DP_mult_77_G2_n215
*485 DP_mult_77_G2_n214
*486 DP_mult_77_G2_n213
*487 DP_mult_77_G2_n212
*488 DP_mult_77_G2_n211
*489 DP_mult_77_G2_n210
*490 DP_mult_77_G2_n209
*491 DP_mult_77_G2_n208
*492 DP_mult_77_G2_n207
*493 DP_mult_77_G2_n206
*494 DP_mult_77_G2_n205
*495 DP_mult_77_G2_n204
*496 DP_mult_77_G2_n203
*497 DP_mult_77_G2_n202
*498 DP_mult_77_G2_n201
*499 DP_mult_77_G2_n200
*500 DP_mult_77_G2_n199
*501 DP_mult_77_G2_n198
*502 DP_mult_77_G2_n197
*503 DP_mult_77_G2_n101
*504 DP_mult_77_G2_n100
*505 DP_mult_77_G2_n99
*506 DP_mult_77_G2_n98
*507 DP_mult_77_G2_n97
*508 DP_mult_77_G2_n94
*509 DP_mult_77_G2_n93
*510 DP_mult_77_G2_n92
*511 DP_mult_77_G2_n91
*512 DP_mult_77_G2_n90
*513 DP_mult_77_G2_n88
*514 DP_mult_77_G2_n87
*515 DP_mult_77_G2_n86
*516 DP_mult_77_G2_n85
*517 DP_mult_77_G2_n84
*518 DP_mult_77_G2_n83
*519 DP_mult_77_G2_n82
*520 DP_mult_77_G2_n81
*521 DP_mult_77_G2_n79
*522 DP_mult_77_G2_n78
*523 DP_mult_77_G2_n76
*524 DP_mult_77_G2_n75
*525 DP_mult_77_G2_n74
*526 DP_mult_77_G2_n73
*527 DP_mult_77_G2_n69
*528 DP_mult_77_G2_n68
*529 DP_mult_77_G2_n56
*530 DP_mult_77_G2_n55
*531 DP_mult_77_G2_n54
*532 DP_mult_77_G2_n53
*533 DP_mult_77_G2_n52
*534 DP_mult_77_G2_n51
*535 DP_mult_77_G2_n50
*536 DP_mult_77_G2_n49
*537 DP_mult_77_G2_n48
*538 DP_mult_77_G2_n47
*539 DP_mult_77_G2_n46
*540 DP_mult_77_G2_n45
*541 DP_mult_77_G2_n44
*542 DP_mult_77_G2_n43
*543 DP_mult_77_G2_n42
*544 DP_mult_77_G2_n41
*545 DP_mult_77_G2_n40
*546 DP_mult_77_G2_n39
*547 DP_mult_77_G2_n38
*548 DP_mult_77_G2_n37
*549 DP_mult_77_G2_n36
*550 DP_mult_77_G2_n35
*551 DP_mult_77_G2_n34
*552 DP_mult_77_G2_n33
*553 DP_mult_77_G2_n32
*554 DP_mult_77_G2_n30
*555 DP_mult_77_G2_n29
*556 DP_mult_77_G2_n28
*557 DP_mult_77_G2_n27
*558 DP_mult_77_G2_n26
*559 DP_mult_77_G2_n25
*560 DP_mult_77_G2_n24
*561 DP_mult_77_G2_n23
*562 DP_mult_77_G2_n21
*563 DP_mult_77_G2_n20
*564 DP_mult_77_G2_n19
*565 DP_mult_77_G2_n18
*566 DP_mult_77_G2_n17
*567 DP_mult_77_G2_n16
*568 DP_mult_77_G2_n9
*569 DP_mult_77_G2_n8
*570 DP_mult_77_G2_n7
*571 DP_mult_77_G2_n6
*572 DP_mult_77_G2_n5
*573 DP_mult_77_G2_n4
*574 DP_mult_77_G2_n3
*575 DP_mult_77_G2_n2
*576 DP_mult_77_G3_n274
*577 DP_mult_77_G3_n273
*578 DP_mult_77_G3_n272
*579 DP_mult_77_G3_n271
*580 DP_mult_77_G3_n270
*581 DP_mult_77_G3_n269
*582 DP_mult_77_G3_n268
*583 DP_mult_77_G3_n267
*584 DP_mult_77_G3_n266
*585 DP_mult_77_G3_n265
*586 DP_mult_77_G3_n264
*587 DP_mult_77_G3_n263
*588 DP_mult_77_G3_n262
*589 DP_mult_77_G3_n261
*590 DP_mult_77_G3_n260
*591 DP_mult_77_G3_n259
*592 DP_mult_77_G3_n258
*593 DP_mult_77_G3_n257
*594 DP_mult_77_G3_n256
*595 DP_mult_77_G3_n255
*596 DP_mult_77_G3_n254
*597 DP_mult_77_G3_n253
*598 DP_mult_77_G3_n252
*599 DP_mult_77_G3_n251
*600 DP_mult_77_G3_n250
*601 DP_mult_77_G3_n249
*602 DP_mult_77_G3_n248
*603 DP_mult_77_G3_n247
*604 DP_mult_77_G3_n246
*605 DP_mult_77_G3_n245
*606 DP_mult_77_G3_n244
*607 DP_mult_77_G3_n243
*608 DP_mult_77_G3_n242
*609 DP_mult_77_G3_n241
*610 DP_mult_77_G3_n240
*611 DP_mult_77_G3_n239
*612 DP_mult_77_G3_n238
*613 DP_mult_77_G3_n237
*614 DP_mult_77_G3_n236
*615 DP_mult_77_G3_n235
*616 DP_mult_77_G3_n234
*617 DP_mult_77_G3_n233
*618 DP_mult_77_G3_n232
*619 DP_mult_77_G3_n231
*620 DP_mult_77_G3_n230
*621 DP_mult_77_G3_n229
*622 DP_mult_77_G3_n228
*623 DP_mult_77_G3_n227
*624 DP_mult_77_G3_n226
*625 DP_mult_77_G3_n225
*626 DP_mult_77_G3_n224
*627 DP_mult_77_G3_n223
*628 DP_mult_77_G3_n222
*629 DP_mult_77_G3_n221
*630 DP_mult_77_G3_n220
*631 DP_mult_77_G3_n219
*632 DP_mult_77_G3_n218
*633 DP_mult_77_G3_n217
*634 DP_mult_77_G3_n216
*635 DP_mult_77_G3_n215
*636 DP_mult_77_G3_n214
*637 DP_mult_77_G3_n213
*638 DP_mult_77_G3_n212
*639 DP_mult_77_G3_n211
*640 DP_mult_77_G3_n210
*641 DP_mult_77_G3_n209
*642 DP_mult_77_G3_n208
*643 DP_mult_77_G3_n207
*644 DP_mult_77_G3_n206
*645 DP_mult_77_G3_n205
*646 DP_mult_77_G3_n204
*647 DP_mult_77_G3_n203
*648 DP_mult_77_G3_n202
*649 DP_mult_77_G3_n201
*650 DP_mult_77_G3_n200
*651 DP_mult_77_G3_n199
*652 DP_mult_77_G3_n198
*653 DP_mult_77_G3_n197
*654 DP_mult_77_G3_n101
*655 DP_mult_77_G3_n100
*656 DP_mult_77_G3_n99
*657 DP_mult_77_G3_n98
*658 DP_mult_77_G3_n97
*659 DP_mult_77_G3_n94
*660 DP_mult_77_G3_n93
*661 DP_mult_77_G3_n92
*662 DP_mult_77_G3_n91
*663 DP_mult_77_G3_n90
*664 DP_mult_77_G3_n88
*665 DP_mult_77_G3_n87
*666 DP_mult_77_G3_n86
*667 DP_mult_77_G3_n85
*668 DP_mult_77_G3_n84
*669 DP_mult_77_G3_n83
*670 DP_mult_77_G3_n82
*671 DP_mult_77_G3_n81
*672 DP_mult_77_G3_n79
*673 DP_mult_77_G3_n78
*674 DP_mult_77_G3_n76
*675 DP_mult_77_G3_n75
*676 DP_mult_77_G3_n74
*677 DP_mult_77_G3_n73
*678 DP_mult_77_G3_n69
*679 DP_mult_77_G3_n68
*680 DP_mult_77_G3_n56
*681 DP_mult_77_G3_n55
*682 DP_mult_77_G3_n54
*683 DP_mult_77_G3_n53
*684 DP_mult_77_G3_n52
*685 DP_mult_77_G3_n51
*686 DP_mult_77_G3_n50
*687 DP_mult_77_G3_n49
*688 DP_mult_77_G3_n48
*689 DP_mult_77_G3_n47
*690 DP_mult_77_G3_n46
*691 DP_mult_77_G3_n45
*692 DP_mult_77_G3_n44
*693 DP_mult_77_G3_n43
*694 DP_mult_77_G3_n42
*695 DP_mult_77_G3_n41
*696 DP_mult_77_G3_n40
*697 DP_mult_77_G3_n39
*698 DP_mult_77_G3_n38
*699 DP_mult_77_G3_n37
*700 DP_mult_77_G3_n36
*701 DP_mult_77_G3_n35
*702 DP_mult_77_G3_n34
*703 DP_mult_77_G3_n33
*704 DP_mult_77_G3_n32
*705 DP_mult_77_G3_n30
*706 DP_mult_77_G3_n29
*707 DP_mult_77_G3_n28
*708 DP_mult_77_G3_n27
*709 DP_mult_77_G3_n26
*710 DP_mult_77_G3_n25
*711 DP_mult_77_G3_n24
*712 DP_mult_77_G3_n23
*713 DP_mult_77_G3_n21
*714 DP_mult_77_G3_n20
*715 DP_mult_77_G3_n19
*716 DP_mult_77_G3_n18
*717 DP_mult_77_G3_n17
*718 DP_mult_77_G3_n16
*719 DP_mult_77_G3_n9
*720 DP_mult_77_G3_n8
*721 DP_mult_77_G3_n7
*722 DP_mult_77_G3_n6
*723 DP_mult_77_G3_n5
*724 DP_mult_77_G3_n4
*725 DP_mult_77_G3_n3
*726 DP_mult_77_G3_n2
*727 DP_mult_77_G9_n274
*728 DP_mult_77_G9_n273
*729 DP_mult_77_G9_n272
*730 DP_mult_77_G9_n271
*731 DP_mult_77_G9_n270
*732 DP_mult_77_G9_n269
*733 DP_mult_77_G9_n268
*734 DP_mult_77_G9_n267
*735 DP_mult_77_G9_n266
*736 DP_mult_77_G9_n265
*737 DP_mult_77_G9_n264
*738 DP_mult_77_G9_n263
*739 DP_mult_77_G9_n262
*740 DP_mult_77_G9_n261
*741 DP_mult_77_G9_n260
*742 DP_mult_77_G9_n259
*743 DP_mult_77_G9_n258
*744 DP_mult_77_G9_n257
*745 DP_mult_77_G9_n256
*746 DP_mult_77_G9_n255
*747 DP_mult_77_G9_n254
*748 DP_mult_77_G9_n253
*749 DP_mult_77_G9_n252
*750 DP_mult_77_G9_n251
*751 DP_mult_77_G9_n250
*752 DP_mult_77_G9_n249
*753 DP_mult_77_G9_n248
*754 DP_mult_77_G9_n247
*755 DP_mult_77_G9_n246
*756 DP_mult_77_G9_n245
*757 DP_mult_77_G9_n244
*758 DP_mult_77_G9_n243
*759 DP_mult_77_G9_n242
*760 DP_mult_77_G9_n241
*761 DP_mult_77_G9_n240
*762 DP_mult_77_G9_n239
*763 DP_mult_77_G9_n238
*764 DP_mult_77_G9_n237
*765 DP_mult_77_G9_n236
*766 DP_mult_77_G9_n235
*767 DP_mult_77_G9_n234
*768 DP_mult_77_G9_n233
*769 DP_mult_77_G9_n232
*770 DP_mult_77_G9_n231
*771 DP_mult_77_G9_n230
*772 DP_mult_77_G9_n229
*773 DP_mult_77_G9_n228
*774 DP_mult_77_G9_n227
*775 DP_mult_77_G9_n226
*776 DP_mult_77_G9_n225
*777 DP_mult_77_G9_n224
*778 DP_mult_77_G9_n223
*779 DP_mult_77_G9_n222
*780 DP_mult_77_G9_n221
*781 DP_mult_77_G9_n220
*782 DP_mult_77_G9_n219
*783 DP_mult_77_G9_n218
*784 DP_mult_77_G9_n217
*785 DP_mult_77_G9_n216
*786 DP_mult_77_G9_n215
*787 DP_mult_77_G9_n214
*788 DP_mult_77_G9_n213
*789 DP_mult_77_G9_n212
*790 DP_mult_77_G9_n211
*791 DP_mult_77_G9_n210
*792 DP_mult_77_G9_n209
*793 DP_mult_77_G9_n208
*794 DP_mult_77_G9_n207
*795 DP_mult_77_G9_n206
*796 DP_mult_77_G9_n205
*797 DP_mult_77_G9_n204
*798 DP_mult_77_G9_n203
*799 DP_mult_77_G9_n202
*800 DP_mult_77_G9_n201
*801 DP_mult_77_G9_n200
*802 DP_mult_77_G9_n199
*803 DP_mult_77_G9_n198
*804 DP_mult_77_G9_n197
*805 DP_mult_77_G9_n101
*806 DP_mult_77_G9_n100
*807 DP_mult_77_G9_n99
*808 DP_mult_77_G9_n98
*809 DP_mult_77_G9_n97
*810 DP_mult_77_G9_n94
*811 DP_mult_77_G9_n93
*812 DP_mult_77_G9_n92
*813 DP_mult_77_G9_n91
*814 DP_mult_77_G9_n90
*815 DP_mult_77_G9_n88
*816 DP_mult_77_G9_n87
*817 DP_mult_77_G9_n86
*818 DP_mult_77_G9_n85
*819 DP_mult_77_G9_n84
*820 DP_mult_77_G9_n83
*821 DP_mult_77_G9_n82
*822 DP_mult_77_G9_n81
*823 DP_mult_77_G9_n79
*824 DP_mult_77_G9_n78
*825 DP_mult_77_G9_n76
*826 DP_mult_77_G9_n75
*827 DP_mult_77_G9_n74
*828 DP_mult_77_G9_n73
*829 DP_mult_77_G9_n69
*830 DP_mult_77_G9_n68
*831 DP_mult_77_G9_n56
*832 DP_mult_77_G9_n55
*833 DP_mult_77_G9_n54
*834 DP_mult_77_G9_n53
*835 DP_mult_77_G9_n52
*836 DP_mult_77_G9_n51
*837 DP_mult_77_G9_n50
*838 DP_mult_77_G9_n49
*839 DP_mult_77_G9_n48
*840 DP_mult_77_G9_n47
*841 DP_mult_77_G9_n46
*842 DP_mult_77_G9_n45
*843 DP_mult_77_G9_n44
*844 DP_mult_77_G9_n43
*845 DP_mult_77_G9_n42
*846 DP_mult_77_G9_n41
*847 DP_mult_77_G9_n40
*848 DP_mult_77_G9_n39
*849 DP_mult_77_G9_n38
*850 DP_mult_77_G9_n37
*851 DP_mult_77_G9_n36
*852 DP_mult_77_G9_n35
*853 DP_mult_77_G9_n34
*854 DP_mult_77_G9_n33
*855 DP_mult_77_G9_n32
*856 DP_mult_77_G9_n30
*857 DP_mult_77_G9_n29
*858 DP_mult_77_G9_n28
*859 DP_mult_77_G9_n27
*860 DP_mult_77_G9_n26
*861 DP_mult_77_G9_n25
*862 DP_mult_77_G9_n24
*863 DP_mult_77_G9_n23
*864 DP_mult_77_G9_n21
*865 DP_mult_77_G9_n20
*866 DP_mult_77_G9_n19
*867 DP_mult_77_G9_n18
*868 DP_mult_77_G9_n17
*869 DP_mult_77_G9_n16
*870 DP_mult_77_G9_n9
*871 DP_mult_77_G9_n8
*872 DP_mult_77_G9_n7
*873 DP_mult_77_G9_n6
*874 DP_mult_77_G9_n5
*875 DP_mult_77_G9_n4
*876 DP_mult_77_G9_n3
*877 DP_mult_77_G9_n2
*878 DP_mult_77_G7_n274
*879 DP_mult_77_G7_n273
*880 DP_mult_77_G7_n272
*881 DP_mult_77_G7_n271
*882 DP_mult_77_G7_n270
*883 DP_mult_77_G7_n269
*884 DP_mult_77_G7_n268
*885 DP_mult_77_G7_n267
*886 DP_mult_77_G7_n266
*887 DP_mult_77_G7_n265
*888 DP_mult_77_G7_n264
*889 DP_mult_77_G7_n263
*890 DP_mult_77_G7_n262
*891 DP_mult_77_G7_n261
*892 DP_mult_77_G7_n260
*893 DP_mult_77_G7_n259
*894 DP_mult_77_G7_n258
*895 DP_mult_77_G7_n257
*896 DP_mult_77_G7_n256
*897 DP_mult_77_G7_n255
*898 DP_mult_77_G7_n254
*899 DP_mult_77_G7_n253
*900 DP_mult_77_G7_n252
*901 DP_mult_77_G7_n251
*902 DP_mult_77_G7_n250
*903 DP_mult_77_G7_n249
*904 DP_mult_77_G7_n248
*905 DP_mult_77_G7_n247
*906 DP_mult_77_G7_n246
*907 DP_mult_77_G7_n245
*908 DP_mult_77_G7_n244
*909 DP_mult_77_G7_n243
*910 DP_mult_77_G7_n242
*911 DP_mult_77_G7_n241
*912 DP_mult_77_G7_n240
*913 DP_mult_77_G7_n239
*914 DP_mult_77_G7_n238
*915 DP_mult_77_G7_n237
*916 DP_mult_77_G7_n236
*917 DP_mult_77_G7_n235
*918 DP_mult_77_G7_n234
*919 DP_mult_77_G7_n233
*920 DP_mult_77_G7_n232
*921 DP_mult_77_G7_n231
*922 DP_mult_77_G7_n230
*923 DP_mult_77_G7_n229
*924 DP_mult_77_G7_n228
*925 DP_mult_77_G7_n227
*926 DP_mult_77_G7_n226
*927 DP_mult_77_G7_n225
*928 DP_mult_77_G7_n224
*929 DP_mult_77_G7_n223
*930 DP_mult_77_G7_n222
*931 DP_mult_77_G7_n221
*932 DP_mult_77_G7_n220
*933 DP_mult_77_G7_n219
*934 DP_mult_77_G7_n218
*935 DP_mult_77_G7_n217
*936 DP_mult_77_G7_n216
*937 DP_mult_77_G7_n215
*938 DP_mult_77_G7_n214
*939 DP_mult_77_G7_n213
*940 DP_mult_77_G7_n212
*941 DP_mult_77_G7_n211
*942 DP_mult_77_G7_n210
*943 DP_mult_77_G7_n209
*944 DP_mult_77_G7_n208
*945 DP_mult_77_G7_n207
*946 DP_mult_77_G7_n206
*947 DP_mult_77_G7_n205
*948 DP_mult_77_G7_n204
*949 DP_mult_77_G7_n203
*950 DP_mult_77_G7_n202
*951 DP_mult_77_G7_n201
*952 DP_mult_77_G7_n200
*953 DP_mult_77_G7_n199
*954 DP_mult_77_G7_n198
*955 DP_mult_77_G7_n197
*956 DP_mult_77_G7_n101
*957 DP_mult_77_G7_n100
*958 DP_mult_77_G7_n99
*959 DP_mult_77_G7_n98
*960 DP_mult_77_G7_n97
*961 DP_mult_77_G7_n94
*962 DP_mult_77_G7_n93
*963 DP_mult_77_G7_n92
*964 DP_mult_77_G7_n91
*965 DP_mult_77_G7_n90
*966 DP_mult_77_G7_n88
*967 DP_mult_77_G7_n87
*968 DP_mult_77_G7_n86
*969 DP_mult_77_G7_n85
*970 DP_mult_77_G7_n84
*971 DP_mult_77_G7_n83
*972 DP_mult_77_G7_n82
*973 DP_mult_77_G7_n81
*974 DP_mult_77_G7_n79
*975 DP_mult_77_G7_n78
*976 DP_mult_77_G7_n76
*977 DP_mult_77_G7_n75
*978 DP_mult_77_G7_n74
*979 DP_mult_77_G7_n73
*980 DP_mult_77_G7_n69
*981 DP_mult_77_G7_n68
*982 DP_mult_77_G7_n56
*983 DP_mult_77_G7_n55
*984 DP_mult_77_G7_n54
*985 DP_mult_77_G7_n53
*986 DP_mult_77_G7_n52
*987 DP_mult_77_G7_n51
*988 DP_mult_77_G7_n50
*989 DP_mult_77_G7_n49
*990 DP_mult_77_G7_n48
*991 DP_mult_77_G7_n47
*992 DP_mult_77_G7_n46
*993 DP_mult_77_G7_n45
*994 DP_mult_77_G7_n44
*995 DP_mult_77_G7_n43
*996 DP_mult_77_G7_n42
*997 DP_mult_77_G7_n41
*998 DP_mult_77_G7_n40
*999 DP_mult_77_G7_n39
*1000 DP_mult_77_G7_n38
*1001 DP_mult_77_G7_n37
*1002 DP_mult_77_G7_n36
*1003 DP_mult_77_G7_n35
*1004 DP_mult_77_G7_n34
*1005 DP_mult_77_G7_n33
*1006 DP_mult_77_G7_n32
*1007 DP_mult_77_G7_n30
*1008 DP_mult_77_G7_n29
*1009 DP_mult_77_G7_n28
*1010 DP_mult_77_G7_n27
*1011 DP_mult_77_G7_n26
*1012 DP_mult_77_G7_n25
*1013 DP_mult_77_G7_n24
*1014 DP_mult_77_G7_n23
*1015 DP_mult_77_G7_n21
*1016 DP_mult_77_G7_n20
*1017 DP_mult_77_G7_n19
*1018 DP_mult_77_G7_n18
*1019 DP_mult_77_G7_n17
*1020 DP_mult_77_G7_n16
*1021 DP_mult_77_G7_n9
*1022 DP_mult_77_G7_n8
*1023 DP_mult_77_G7_n7
*1024 DP_mult_77_G7_n6
*1025 DP_mult_77_G7_n5
*1026 DP_mult_77_G7_n4
*1027 DP_mult_77_G7_n3
*1028 DP_mult_77_G7_n2
*1029 DP_add_5_root_add_0_root_add_83_G7_n1
*1030 DP_mult_77_G4_n274
*1031 DP_mult_77_G4_n273
*1032 DP_mult_77_G4_n272
*1033 DP_mult_77_G4_n271
*1034 DP_mult_77_G4_n270
*1035 DP_mult_77_G4_n269
*1036 DP_mult_77_G4_n268
*1037 DP_mult_77_G4_n267
*1038 DP_mult_77_G4_n266
*1039 DP_mult_77_G4_n265
*1040 DP_mult_77_G4_n264
*1041 DP_mult_77_G4_n263
*1042 DP_mult_77_G4_n262
*1043 DP_mult_77_G4_n261
*1044 DP_mult_77_G4_n260
*1045 DP_mult_77_G4_n259
*1046 DP_mult_77_G4_n258
*1047 DP_mult_77_G4_n257
*1048 DP_mult_77_G4_n256
*1049 DP_mult_77_G4_n255
*1050 DP_mult_77_G4_n254
*1051 DP_mult_77_G4_n253
*1052 DP_mult_77_G4_n252
*1053 DP_mult_77_G4_n251
*1054 DP_mult_77_G4_n250
*1055 DP_mult_77_G4_n249
*1056 DP_mult_77_G4_n248
*1057 DP_mult_77_G4_n247
*1058 DP_mult_77_G4_n246
*1059 DP_mult_77_G4_n245
*1060 DP_mult_77_G4_n244
*1061 DP_mult_77_G4_n243
*1062 DP_mult_77_G4_n242
*1063 DP_mult_77_G4_n241
*1064 DP_mult_77_G4_n240
*1065 DP_mult_77_G4_n239
*1066 DP_mult_77_G4_n238
*1067 DP_mult_77_G4_n237
*1068 DP_mult_77_G4_n236
*1069 DP_mult_77_G4_n235
*1070 DP_mult_77_G4_n234
*1071 DP_mult_77_G4_n233
*1072 DP_mult_77_G4_n232
*1073 DP_mult_77_G4_n231
*1074 DP_mult_77_G4_n230
*1075 DP_mult_77_G4_n229
*1076 DP_mult_77_G4_n228
*1077 DP_mult_77_G4_n227
*1078 DP_mult_77_G4_n226
*1079 DP_mult_77_G4_n225
*1080 DP_mult_77_G4_n224
*1081 DP_mult_77_G4_n223
*1082 DP_mult_77_G4_n222
*1083 DP_mult_77_G4_n221
*1084 DP_mult_77_G4_n220
*1085 DP_mult_77_G4_n219
*1086 DP_mult_77_G4_n218
*1087 DP_mult_77_G4_n217
*1088 DP_mult_77_G4_n216
*1089 DP_mult_77_G4_n215
*1090 DP_mult_77_G4_n214
*1091 DP_mult_77_G4_n213
*1092 DP_mult_77_G4_n212
*1093 DP_mult_77_G4_n211
*1094 DP_mult_77_G4_n210
*1095 DP_mult_77_G4_n209
*1096 DP_mult_77_G4_n208
*1097 DP_mult_77_G4_n207
*1098 DP_mult_77_G4_n206
*1099 DP_mult_77_G4_n205
*1100 DP_mult_77_G4_n204
*1101 DP_mult_77_G4_n203
*1102 DP_mult_77_G4_n202
*1103 DP_mult_77_G4_n201
*1104 DP_mult_77_G4_n200
*1105 DP_mult_77_G4_n199
*1106 DP_mult_77_G4_n198
*1107 DP_mult_77_G4_n197
*1108 DP_mult_77_G4_n101
*1109 DP_mult_77_G4_n100
*1110 DP_mult_77_G4_n99
*1111 DP_mult_77_G4_n98
*1112 DP_mult_77_G4_n97
*1113 DP_mult_77_G4_n94
*1114 DP_mult_77_G4_n93
*1115 DP_mult_77_G4_n92
*1116 DP_mult_77_G4_n91
*1117 DP_mult_77_G4_n90
*1118 DP_mult_77_G4_n88
*1119 DP_mult_77_G4_n87
*1120 DP_mult_77_G4_n86
*1121 DP_mult_77_G4_n85
*1122 DP_mult_77_G4_n84
*1123 DP_mult_77_G4_n83
*1124 DP_mult_77_G4_n82
*1125 DP_mult_77_G4_n81
*1126 DP_mult_77_G4_n79
*1127 DP_mult_77_G4_n78
*1128 DP_mult_77_G4_n76
*1129 DP_mult_77_G4_n75
*1130 DP_mult_77_G4_n74
*1131 DP_mult_77_G4_n73
*1132 DP_mult_77_G4_n69
*1133 DP_mult_77_G4_n68
*1134 DP_mult_77_G4_n56
*1135 DP_mult_77_G4_n55
*1136 DP_mult_77_G4_n54
*1137 DP_mult_77_G4_n53
*1138 DP_mult_77_G4_n52
*1139 DP_mult_77_G4_n51
*1140 DP_mult_77_G4_n50
*1141 DP_mult_77_G4_n49
*1142 DP_mult_77_G4_n48
*1143 DP_mult_77_G4_n47
*1144 DP_mult_77_G4_n46
*1145 DP_mult_77_G4_n45
*1146 DP_mult_77_G4_n44
*1147 DP_mult_77_G4_n43
*1148 DP_mult_77_G4_n42
*1149 DP_mult_77_G4_n41
*1150 DP_mult_77_G4_n40
*1151 DP_mult_77_G4_n39
*1152 DP_mult_77_G4_n38
*1153 DP_mult_77_G4_n37
*1154 DP_mult_77_G4_n36
*1155 DP_mult_77_G4_n35
*1156 DP_mult_77_G4_n34
*1157 DP_mult_77_G4_n33
*1158 DP_mult_77_G4_n32
*1159 DP_mult_77_G4_n30
*1160 DP_mult_77_G4_n29
*1161 DP_mult_77_G4_n28
*1162 DP_mult_77_G4_n27
*1163 DP_mult_77_G4_n26
*1164 DP_mult_77_G4_n25
*1165 DP_mult_77_G4_n24
*1166 DP_mult_77_G4_n23
*1167 DP_mult_77_G4_n21
*1168 DP_mult_77_G4_n20
*1169 DP_mult_77_G4_n19
*1170 DP_mult_77_G4_n18
*1171 DP_mult_77_G4_n17
*1172 DP_mult_77_G4_n16
*1173 DP_mult_77_G4_n9
*1174 DP_mult_77_G4_n8
*1175 DP_mult_77_G4_n7
*1176 DP_mult_77_G4_n6
*1177 DP_mult_77_G4_n5
*1178 DP_mult_77_G4_n4
*1179 DP_mult_77_G4_n3
*1180 DP_mult_77_G4_n2
*1181 DP_mult_77_G5_n274
*1182 DP_mult_77_G5_n273
*1183 DP_mult_77_G5_n272
*1184 DP_mult_77_G5_n271
*1185 DP_mult_77_G5_n270
*1186 DP_mult_77_G5_n269
*1187 DP_mult_77_G5_n268
*1188 DP_mult_77_G5_n267
*1189 DP_mult_77_G5_n266
*1190 DP_mult_77_G5_n265
*1191 DP_mult_77_G5_n264
*1192 DP_mult_77_G5_n263
*1193 DP_mult_77_G5_n262
*1194 DP_mult_77_G5_n261
*1195 DP_mult_77_G5_n260
*1196 DP_mult_77_G5_n259
*1197 DP_mult_77_G5_n258
*1198 DP_mult_77_G5_n257
*1199 DP_mult_77_G5_n256
*1200 DP_mult_77_G5_n255
*1201 DP_mult_77_G5_n254
*1202 DP_mult_77_G5_n253
*1203 DP_mult_77_G5_n252
*1204 DP_mult_77_G5_n251
*1205 DP_mult_77_G5_n250
*1206 DP_mult_77_G5_n249
*1207 DP_mult_77_G5_n248
*1208 DP_mult_77_G5_n247
*1209 DP_mult_77_G5_n246
*1210 DP_mult_77_G5_n245
*1211 DP_mult_77_G5_n244
*1212 DP_mult_77_G5_n243
*1213 DP_mult_77_G5_n242
*1214 DP_mult_77_G5_n241
*1215 DP_mult_77_G5_n240
*1216 DP_mult_77_G5_n239
*1217 DP_mult_77_G5_n238
*1218 DP_mult_77_G5_n237
*1219 DP_mult_77_G5_n236
*1220 DP_mult_77_G5_n235
*1221 DP_mult_77_G5_n234
*1222 DP_mult_77_G5_n233
*1223 DP_mult_77_G5_n232
*1224 DP_mult_77_G5_n231
*1225 DP_mult_77_G5_n230
*1226 DP_mult_77_G5_n229
*1227 DP_mult_77_G5_n228
*1228 DP_mult_77_G5_n227
*1229 DP_mult_77_G5_n226
*1230 DP_mult_77_G5_n225
*1231 DP_mult_77_G5_n224
*1232 DP_mult_77_G5_n223
*1233 DP_mult_77_G5_n222
*1234 DP_mult_77_G5_n221
*1235 DP_mult_77_G5_n220
*1236 DP_mult_77_G5_n219
*1237 DP_mult_77_G5_n218
*1238 DP_mult_77_G5_n217
*1239 DP_mult_77_G5_n216
*1240 DP_mult_77_G5_n215
*1241 DP_mult_77_G5_n214
*1242 DP_mult_77_G5_n213
*1243 DP_mult_77_G5_n212
*1244 DP_mult_77_G5_n211
*1245 DP_mult_77_G5_n210
*1246 DP_mult_77_G5_n209
*1247 DP_mult_77_G5_n208
*1248 DP_mult_77_G5_n207
*1249 DP_mult_77_G5_n206
*1250 DP_mult_77_G5_n205
*1251 DP_mult_77_G5_n204
*1252 DP_mult_77_G5_n203
*1253 DP_mult_77_G5_n202
*1254 DP_mult_77_G5_n201
*1255 DP_mult_77_G5_n200
*1256 DP_mult_77_G5_n199
*1257 DP_mult_77_G5_n198
*1258 DP_mult_77_G5_n197
*1259 DP_mult_77_G5_n101
*1260 DP_mult_77_G5_n100
*1261 DP_mult_77_G5_n99
*1262 DP_mult_77_G5_n98
*1263 DP_mult_77_G5_n97
*1264 DP_mult_77_G5_n94
*1265 DP_mult_77_G5_n93
*1266 DP_mult_77_G5_n92
*1267 DP_mult_77_G5_n91
*1268 DP_mult_77_G5_n90
*1269 DP_mult_77_G5_n88
*1270 DP_mult_77_G5_n87
*1271 DP_mult_77_G5_n86
*1272 DP_mult_77_G5_n85
*1273 DP_mult_77_G5_n84
*1274 DP_mult_77_G5_n83
*1275 DP_mult_77_G5_n82
*1276 DP_mult_77_G5_n81
*1277 DP_mult_77_G5_n79
*1278 DP_mult_77_G5_n78
*1279 DP_mult_77_G5_n76
*1280 DP_mult_77_G5_n75
*1281 DP_mult_77_G5_n74
*1282 DP_mult_77_G5_n73
*1283 DP_mult_77_G5_n69
*1284 DP_mult_77_G5_n68
*1285 DP_mult_77_G5_n56
*1286 DP_mult_77_G5_n55
*1287 DP_mult_77_G5_n54
*1288 DP_mult_77_G5_n53
*1289 DP_mult_77_G5_n52
*1290 DP_mult_77_G5_n51
*1291 DP_mult_77_G5_n50
*1292 DP_mult_77_G5_n49
*1293 DP_mult_77_G5_n48
*1294 DP_mult_77_G5_n47
*1295 DP_mult_77_G5_n46
*1296 DP_mult_77_G5_n45
*1297 DP_mult_77_G5_n44
*1298 DP_mult_77_G5_n43
*1299 DP_mult_77_G5_n42
*1300 DP_mult_77_G5_n41
*1301 DP_mult_77_G5_n40
*1302 DP_mult_77_G5_n39
*1303 DP_mult_77_G5_n38
*1304 DP_mult_77_G5_n37
*1305 DP_mult_77_G5_n36
*1306 DP_mult_77_G5_n35
*1307 DP_mult_77_G5_n34
*1308 DP_mult_77_G5_n33
*1309 DP_mult_77_G5_n32
*1310 DP_mult_77_G5_n30
*1311 DP_mult_77_G5_n29
*1312 DP_mult_77_G5_n28
*1313 DP_mult_77_G5_n27
*1314 DP_mult_77_G5_n26
*1315 DP_mult_77_G5_n25
*1316 DP_mult_77_G5_n24
*1317 DP_mult_77_G5_n23
*1318 DP_mult_77_G5_n21
*1319 DP_mult_77_G5_n20
*1320 DP_mult_77_G5_n19
*1321 DP_mult_77_G5_n18
*1322 DP_mult_77_G5_n17
*1323 DP_mult_77_G5_n16
*1324 DP_mult_77_G5_n9
*1325 DP_mult_77_G5_n8
*1326 DP_mult_77_G5_n7
*1327 DP_mult_77_G5_n6
*1328 DP_mult_77_G5_n5
*1329 DP_mult_77_G5_n4
*1330 DP_mult_77_G5_n3
*1331 DP_mult_77_G5_n2
*1332 DP_add_4_root_add_0_root_add_83_G7_n2
*1333 DP_add_3_root_add_0_root_add_83_G7_n1
*1334 DP_mult_77_G6_n274
*1335 DP_mult_77_G6_n273
*1336 DP_mult_77_G6_n272
*1337 DP_mult_77_G6_n271
*1338 DP_mult_77_G6_n270
*1339 DP_mult_77_G6_n269
*1340 DP_mult_77_G6_n268
*1341 DP_mult_77_G6_n267
*1342 DP_mult_77_G6_n266
*1343 DP_mult_77_G6_n265
*1344 DP_mult_77_G6_n264
*1345 DP_mult_77_G6_n263
*1346 DP_mult_77_G6_n262
*1347 DP_mult_77_G6_n261
*1348 DP_mult_77_G6_n260
*1349 DP_mult_77_G6_n259
*1350 DP_mult_77_G6_n258
*1351 DP_mult_77_G6_n257
*1352 DP_mult_77_G6_n256
*1353 DP_mult_77_G6_n255
*1354 DP_mult_77_G6_n254
*1355 DP_mult_77_G6_n253
*1356 DP_mult_77_G6_n252