*SPEF "IEEE 1481-1998"
*DESIGN "MYFIR"
*DATE "Sat Oct 31 17:49:21 2020"
*VENDOR "Cadence Design Systems, Inc."
*PROGRAM "Innovus"
*VERSION "17.11-s080_1"
*DESIGN_FLOW "COUPLING C" "PIN_CAP NONE" "NAME_SCOPE LOCAL"
*DIVIDER /
*DELIMITER :
*BUS_DELIMITER []
*T_UNIT 1 NS
*C_UNIT 1 PF
*R_UNIT 1 OHM
*L_UNIT 1 HENRY

// MMMC spef file for corner 'my_rc'

*NAME_MAP

*1 FE_OFN3_RST_N
*2 FE_OFN2_DP_mult_76_G4_n247
*3 FE_OFN1_ctrl_in_dp
*4 FE_OFN0_ctrl_in_dp
*5 DIN[10]
*6 DIN[9]
*7 DIN[8]
*8 DIN[7]
*9 DIN[6]
*10 DIN[5]
*11 DIN[4]
*12 DIN[3]
*13 DIN[2]
*14 DIN[1]
*15 DIN[0]
*16 H0[10]
*17 H0[9]
*18 H0[8]
*19 H0[7]
*20 H0[6]
*21 H0[5]
*22 H0[4]
*23 H0[3]
*24 H0[2]
*25 H0[1]
*26 H0[0]
*27 H1[10]
*28 H1[9]
*29 H1[8]
*30 H1[7]
*31 H1[6]
*32 H1[5]
*33 H1[4]
*34 H1[3]
*35 H1[2]
*36 H1[1]
*37 H1[0]
*38 H2[10]
*39 H2[9]
*40 H2[8]
*41 H2[7]
*42 H2[6]
*43 H2[5]
*44 H2[4]
*45 H2[3]
*46 H2[2]
*47 H2[1]
*48 H2[0]
*49 H3[10]
*50 H3[9]
*51 H3[8]
*52 H3[7]
*53 H3[6]
*54 H3[5]
*55 H3[4]
*56 H3[3]
*57 H3[2]
*58 H3[1]
*59 H3[0]
*60 H4[10]
*61 H4[9]
*62 H4[8]
*63 H4[7]
*64 H4[6]
*65 H4[5]
*66 H4[4]
*67 H4[3]
*68 H4[2]
*69 H4[1]
*70 H4[0]
*71 H5[10]
*72 H5[9]
*73 H5[8]
*74 H5[7]
*75 H5[6]
*76 H5[5]
*77 H5[4]
*78 H5[3]
*79 H5[2]
*80 H5[1]
*81 H5[0]
*82 H6[10]
*83 H6[9]
*84 H6[8]
*85 H6[7]
*86 H6[6]
*87 H6[5]
*88 H6[4]
*89 H6[3]
*90 H6[2]
*91 H6[1]
*92 H6[0]
*93 H7[10]
*94 H7[9]
*95 H7[8]
*96 H7[7]
*97 H7[6]
*98 H7[5]
*99 H7[4]
*100 H7[3]
*101 H7[2]
*102 H7[1]
*103 H7[0]
*104 H8[10]
*105 H8[9]
*106 H8[8]
*107 H8[7]
*108 H8[6]
*109 H8[5]
*110 H8[4]
*111 H8[3]
*112 H8[2]
*113 H8[1]
*114 H8[0]
*115 DOUT[10]
*116 DOUT[9]
*117 DOUT[8]
*118 DOUT[7]
*119 DOUT[6]
*120 DOUT[5]
*121 DOUT[4]
*122 DOUT[3]
*123 DOUT[2]
*124 DOUT[1]
*125 DOUT[0]
*126 RST_N
*127 CLK
*128 VIN
*129 VOUT
*130 ctrl_in_dp
*131 CU_n4
*132 CU_n3
*133 CU_n2
*134 CU_N17
*135 CU_N16
*136 DP_mult_0__10_
*137 DP_mult_0__11_
*138 DP_mult_0__12_
*139 DP_mult_0__13_
*140 DP_mult_0__14_
*141 DP_mult_0__7_
*142 DP_mult_0__8_
*143 DP_mult_0__9_
*144 DP_mult_1__10_
*145 DP_mult_1__11_
*146 DP_mult_1__12_
*147 DP_mult_1__13_
*148 DP_mult_1__14_
*149 DP_mult_1__7_
*150 DP_mult_1__8_
*151 DP_mult_1__9_
*152 DP_mult_2__10_
*153 DP_mult_2__11_
*154 DP_mult_2__12_
*155 DP_mult_2__13_
*156 DP_mult_2__14_
*157 DP_mult_2__7_
*158 DP_mult_2__8_
*159 DP_mult_2__9_
*160 DP_mult_3__10_
*161 DP_mult_3__11_
*162 DP_mult_3__12_
*163 DP_mult_3__13_
*164 DP_mult_3__14_
*165 DP_mult_3__7_
*166 DP_mult_3__8_
*167 DP_mult_3__9_
*168 DP_mult_4__10_
*169 DP_mult_4__11_
*170 DP_mult_4__12_
*171 DP_mult_4__13_
*172 DP_mult_4__14_
*173 DP_mult_4__7_
*174 DP_mult_4__8_
*175 DP_mult_4__9_
*176 DP_mult_5__10_
*177 DP_mult_5__11_
*178 DP_mult_5__12_
*179 DP_mult_5__13_
*180 DP_mult_5__14_
*181 DP_mult_5__7_
*182 DP_mult_5__8_
*183 DP_mult_5__9_
*184 DP_mult_6__10_
*185 DP_mult_6__11_
*186 DP_mult_6__12_
*187 DP_mult_6__13_
*188 DP_mult_6__14_
*189 DP_mult_6__7_
*190 DP_mult_6__8_
*191 DP_mult_6__9_
*192 DP_mult_7__10_
*193 DP_mult_7__11_
*194 DP_mult_7__12_
*195 DP_mult_7__13_
*196 DP_mult_7__14_
*197 DP_mult_7__7_
*198 DP_mult_7__8_
*199 DP_mult_7__9_
*200 DP_mult_8__10_
*201 DP_mult_8__11_
*202 DP_mult_8__12_
*203 DP_mult_8__13_
*204 DP_mult_8__14_
*205 DP_mult_8__7_
*206 DP_mult_8__8_
*207 DP_mult_8__9_
*208 DP_sum_0__0_
*209 DP_sum_0__1_
*210 DP_sum_0__2_
*211 DP_sum_0__3_
*212 DP_sum_0__4_
*213 DP_sum_0__5_
*214 DP_sum_0__6_
*215 DP_sum_0__7_
*216 DP_sum_1__0_
*217 DP_sum_1__1_
*218 DP_sum_1__2_
*219 DP_sum_1__3_
*220 DP_sum_1__4_
*221 DP_sum_1__5_
*222 DP_sum_1__6_
*223 DP_sum_1__7_
*224 DP_sum_2__0_
*225 DP_sum_2__1_
*226 DP_sum_2__2_
*227 DP_sum_2__3_
*228 DP_sum_2__4_
*229 DP_sum_2__5_
*230 DP_sum_2__6_
*231 DP_sum_2__7_
*232 DP_sum_3__0_
*233 DP_sum_3__1_
*234 DP_sum_3__2_
*235 DP_sum_3__3_
*236 DP_sum_3__4_
*237 DP_sum_3__5_
*238 DP_sum_3__6_
*239 DP_sum_3__7_
*240 DP_sum_4__0_
*241 DP_sum_4__1_
*242 DP_sum_4__2_
*243 DP_sum_4__3_
*244 DP_sum_4__4_
*245 DP_sum_4__5_
*246 DP_sum_4__6_
*247 DP_sum_4__7_
*248 DP_sum_5__0_
*249 DP_sum_5__1_
*250 DP_sum_5__2_
*251 DP_sum_5__3_
*252 DP_sum_5__4_
*253 DP_sum_5__5_
*254 DP_sum_5__6_
*255 DP_sum_5__7_
*256 DP_sum_6__0_
*257 DP_sum_6__1_
*258 DP_sum_6__2_
*259 DP_sum_6__3_
*260 DP_sum_6__4_
*261 DP_sum_6__5_
*262 DP_sum_6__6_
*263 DP_sum_6__7_
*264 DP_input_register_n16
*265 DP_input_register_n15
*266 DP_input_register_n14
*267 DP_input_register_n13
*268 DP_input_register_n12
*269 DP_input_register_n11
*270 DP_input_register_n10
*271 DP_input_register_n9
*272 DP_i_register_1_n50
*273 DP_i_register_1_n49
*274 DP_i_register_1_n48
*275 DP_i_register_1_n47
*276 DP_i_register_1_n46
*277 DP_i_register_1_n45
*278 DP_i_register_1_n44
*279 DP_i_register_1_n43
*280 DP_i_register_1_n42
*281 DP_i_register_1_n41
*282 DP_i_register_1_n40
*283 DP_i_register_1_n39
*284 DP_i_register_1_n38
*285 DP_i_register_1_n37
*286 DP_i_register_1_n36
*287 DP_i_register_1_n35
*288 DP_i_register_1_n34
*289 DP_i_register_1_n33
*290 DP_i_register_1_n32
*291 DP_i_register_1_n31
*292 DP_i_register_1_n30
*293 DP_i_register_1_n29
*294 DP_i_register_1_n28
*295 DP_i_register_1_n27
*296 DP_i_register_2_n50
*297 DP_i_register_2_n49
*298 DP_i_register_2_n48
*299 DP_i_register_2_n47
*300 DP_i_register_2_n46
*301 DP_i_register_2_n45
*302 DP_i_register_2_n44
*303 DP_i_register_2_n43
*304 DP_i_register_2_n42
*305 DP_i_register_2_n41
*306 DP_i_register_2_n40
*307 DP_i_register_2_n39
*308 DP_i_register_2_n38
*309 DP_i_register_2_n37
*310 DP_i_register_2_n36
*311 DP_i_register_2_n35
*312 DP_i_register_2_n34
*313 DP_i_register_2_n33
*314 DP_i_register_2_n32
*315 DP_i_register_2_n31
*316 DP_i_register_2_n30
*317 DP_i_register_2_n29
*318 DP_i_register_2_n28
*319 DP_i_register_2_n27
*320 DP_i_register_3_n50
*321 DP_i_register_3_n49
*322 DP_i_register_3_n48
*323 DP_i_register_3_n47
*324 DP_i_register_3_n46
*325 DP_i_register_3_n45
*326 DP_i_register_3_n44
*327 DP_i_register_3_n43
*328 DP_i_register_3_n42
*329 DP_i_register_3_n41
*330 DP_i_register_3_n40
*331 DP_i_register_3_n39
*332 DP_i_register_3_n38
*333 DP_i_register_3_n37
*334 DP_i_register_3_n36
*335 DP_i_register_3_n35
*336 DP_i_register_3_n34
*337 DP_i_register_3_n33
*338 DP_i_register_3_n32
*339 DP_i_register_3_n31
*340 DP_i_register_3_n30
*341 DP_i_register_3_n29
*342 DP_i_register_3_n28
*343 DP_i_register_3_n27
*344 DP_i_register_4_n50
*345 DP_i_register_4_n49
*346 DP_i_register_4_n48
*347 DP_i_register_4_n47
*348 DP_i_register_4_n46
*349 DP_i_register_4_n45
*350 DP_i_register_4_n44
*351 DP_i_register_4_n43
*352 DP_i_register_4_n42
*353 DP_i_register_4_n41
*354 DP_i_register_4_n40
*355 DP_i_register_4_n39
*356 DP_i_register_4_n38
*357 DP_i_register_4_n37
*358 DP_i_register_4_n36
*359 DP_i_register_4_n35
*360 DP_i_register_4_n34
*361 DP_i_register_4_n33
*362 DP_i_register_4_n32
*363 DP_i_register_4_n31
*364 DP_i_register_4_n30
*365 DP_i_register_4_n29
*366 DP_i_register_4_n28
*367 DP_i_register_4_n27
*368 DP_i_register_5_n50
*369 DP_i_register_5_n49
*370 DP_i_register_5_n48
*371 DP_i_register_5_n47
*372 DP_i_register_5_n46
*373 DP_i_register_5_n45
*374 DP_i_register_5_n44
*375 DP_i_register_5_n43
*376 DP_i_register_5_n42
*377 DP_i_register_5_n41
*378 DP_i_register_5_n40
*379 DP_i_register_5_n39
*380 DP_i_register_5_n38
*381 DP_i_register_5_n37
*382 DP_i_register_5_n36
*383 DP_i_register_5_n35
*384 DP_i_register_5_n34
*385 DP_i_register_5_n33
*386 DP_i_register_5_n32
*387 DP_i_register_5_n31
*388 DP_i_register_5_n30
*389 DP_i_register_5_n29
*390 DP_i_register_5_n28
*391 DP_i_register_5_n27
*392 DP_i_register_6_n50
*393 DP_i_register_6_n49
*394 DP_i_register_6_n48
*395 DP_i_register_6_n47
*396 DP_i_register_6_n46
*397 DP_i_register_6_n45
*398 DP_i_register_6_n44
*399 DP_i_register_6_n43
*400 DP_i_register_6_n42
*401 DP_i_register_6_n41
*402 DP_i_register_6_n40
*403 DP_i_register_6_n39
*404 DP_i_register_6_n38
*405 DP_i_register_6_n37
*406 DP_i_register_6_n36
*407 DP_i_register_6_n35
*408 DP_i_register_6_n34
*409 DP_i_register_6_n33
*410 DP_i_register_6_n32
*411 DP_i_register_6_n31
*412 DP_i_register_6_n30
*413 DP_i_register_6_n29
*414 DP_i_register_6_n28
*415 DP_i_register_6_n27
*416 DP_i_register_7_n50
*417 DP_i_register_7_n49
*418 DP_i_register_7_n48
*419 DP_i_register_7_n47
*420 DP_i_register_7_n46
*421 DP_i_register_7_n45
*422 DP_i_register_7_n44
*423 DP_i_register_7_n43
*424 DP_i_register_7_n42
*425 DP_i_register_7_n41
*426 DP_i_register_7_n40
*427 DP_i_register_7_n39
*428 DP_i_register_7_n38
*429 DP_i_register_7_n37
*430 DP_i_register_7_n36
*431 DP_i_register_7_n35
*432 DP_i_register_7_n34
*433 DP_i_register_7_n33
*434 DP_i_register_7_n32
*435 DP_i_register_7_n31
*436 DP_i_register_7_n30
*437 DP_i_register_7_n29
*438 DP_i_register_7_n28
*439 DP_i_register_7_n27
*440 DP_i_register_8_n50
*441 DP_i_register_8_n49
*442 DP_i_register_8_n48
*443 DP_i_register_8_n47
*444 DP_i_register_8_n46
*445 DP_i_register_8_n45
*446 DP_i_register_8_n44
*447 DP_i_register_8_n43
*448 DP_i_register_8_n42
*449 DP_i_register_8_n41
*450 DP_i_register_8_n40
*451 DP_i_register_8_n39
*452 DP_i_register_8_n38
*453 DP_i_register_8_n37
*454 DP_i_register_8_n36
*455 DP_i_register_8_n35
*456 DP_i_register_8_n34
*457 DP_i_register_8_n33
*458 DP_i_register_8_n32
*459 DP_i_register_8_n31
*460 DP_i_register_8_n30
*461 DP_i_register_8_n29
*462 DP_i_register_8_n28
*463 DP_i_register_8_n27
*464 DP_output_register_n33
*465 DP_output_register_n32
*466 DP_output_register_n31
*467 DP_output_register_n30
*468 DP_output_register_n29
*469 DP_output_register_n28
*470 DP_output_register_n27
*471 DP_output_register_n26
*472 DP_output_register_n25
*473 DP_output_register_n24
*474 DP_output_register_n23
*475 DP_output_register_n22
*476 DP_output_register_n21
*477 DP_output_register_n20
*478 DP_output_register_n19
*479 DP_output_register_n18
*480 DP_output_register_n17
*481 DP_output_register_n16
*482 DP_output_register_n15
*483 DP_output_register_n14
*484 DP_output_register_n13
*485 DP_output_register_n12
*486 DP_output_register_n11
*487 DP_output_register_n10
*488 DP_output_register_n9
*489 DP_output_register_n8
*490 DP_output_register_n7
*491 DP_output_register_n6
*492 DP_output_register_n5
*493 DP_output_register_n4
*494 DP_mult_76_n274
*495 DP_mult_76_n273
*496 DP_mult_76_n272
*497 DP_mult_76_n271
*498 DP_mult_76_n270
*499 DP_mult_76_n269
*500 DP_mult_76_n268
*501 DP_mult_76_n267
*502 DP_mult_76_n266
*503 DP_mult_76_n265
*504 DP_mult_76_n264
*505 DP_mult_76_n263
*506 DP_mult_76_n262
*507 DP_mult_76_n261
*508 DP_mult_76_n260
*509 DP_mult_76_n259
*510 DP_mult_76_n258
*511 DP_mult_76_n257
*512 DP_mult_76_n256
*513 DP_mult_76_n255
*514 DP_mult_76_n254
*515 DP_mult_76_n253
*516 DP_mult_76_n252
*517 DP_mult_76_n251
*518 DP_mult_76_n250
*519 DP_mult_76_n249
*520 DP_mult_76_n248
*521 DP_mult_76_n247
*522 DP_mult_76_n246
*523 DP_mult_76_n245
*524 DP_mult_76_n244
*525 DP_mult_76_n243
*526 DP_mult_76_n242
*527 DP_mult_76_n241
*528 DP_mult_76_n240
*529 DP_mult_76_n239
*530 DP_mult_76_n238
*531 DP_mult_76_n237
*532 DP_mult_76_n236
*533 DP_mult_76_n235
*534 DP_mult_76_n234
*535 DP_mult_76_n233
*536 DP_mult_76_n232
*537 DP_mult_76_n231
*538 DP_mult_76_n230
*539 DP_mult_76_n229
*540 DP_mult_76_n228
*541 DP_mult_76_n227
*542 DP_mult_76_n226
*543 DP_mult_76_n225
*544 DP_mult_76_n224
*545 DP_mult_76_n223
*546 DP_mult_76_n222
*547 DP_mult_76_n221
*548 DP_mult_76_n220
*549 DP_mult_76_n219
*550 DP_mult_76_n218
*551 DP_mult_76_n217
*552 DP_mult_76_n216
*553 DP_mult_76_n215
*554 DP_mult_76_n214
*555 DP_mult_76_n213
*556 DP_mult_76_n212
*557 DP_mult_76_n211
*558 DP_mult_76_n210
*559 DP_mult_76_n209
*560 DP_mult_76_n208
*561 DP_mult_76_n207
*562 DP_mult_76_n206
*563 DP_mult_76_n205
*564 DP_mult_76_n204
*565 DP_mult_76_n203
*566 DP_mult_76_n202
*567 DP_mult_76_n201
*568 DP_mult_76_n200
*569 DP_mult_76_n199
*570 DP_mult_76_n198
*571 DP_mult_76_n197
*572 DP_mult_76_n101
*573 DP_mult_76_n100
*574 DP_mult_76_n99
*575 DP_mult_76_n98
*576 DP_mult_76_n97
*577 DP_mult_76_n94
*578 DP_mult_76_n93
*579 DP_mult_76_n92
*580 DP_mult_76_n91
*581 DP_mult_76_n90
*582 DP_mult_76_n88
*583 DP_mult_76_n87
*584 DP_mult_76_n86
*585 DP_mult_76_n85
*586 DP_mult_76_n84
*587 DP_mult_76_n83
*588 DP_mult_76_n82
*589 DP_mult_76_n81
*590 DP_mult_76_n79
*591 DP_mult_76_n78
*592 DP_mult_76_n76
*593 DP_mult_76_n75
*594 DP_mult_76_n74
*595 DP_mult_76_n73
*596 DP_mult_76_n69
*597 DP_mult_76_n68
*598 DP_mult_76_n56
*599 DP_mult_76_n55
*600 DP_mult_76_n54
*601 DP_mult_76_n53
*602 DP_mult_76_n52
*603 DP_mult_76_n51
*604 DP_mult_76_n50
*605 DP_mult_76_n49
*606 DP_mult_76_n48
*607 DP_mult_76_n47
*608 DP_mult_76_n46
*609 DP_mult_76_n45
*610 DP_mult_76_n44
*611 DP_mult_76_n43
*612 DP_mult_76_n42
*613 DP_mult_76_n41
*614 DP_mult_76_n40
*615 DP_mult_76_n39
*616 DP_mult_76_n38
*617 DP_mult_76_n37
*618 DP_mult_76_n36
*619 DP_mult_76_n35
*620 DP_mult_76_n34
*621 DP_mult_76_n33
*622 DP_mult_76_n32
*623 DP_mult_76_n30
*624 DP_mult_76_n29
*625 DP_mult_76_n28
*626 DP_mult_76_n27
*627 DP_mult_76_n26
*628 DP_mult_76_n25
*629 DP_mult_76_n24
*630 DP_mult_76_n23
*631 DP_mult_76_n21
*632 DP_mult_76_n20
*633 DP_mult_76_n19
*634 DP_mult_76_n18
*635 DP_mult_76_n17
*636 DP_mult_76_n16
*637 DP_mult_76_n9
*638 DP_mult_76_n8
*639 DP_mult_76_n7
*640 DP_mult_76_n6
*641 DP_mult_76_n5
*642 DP_mult_76_n4
*643 DP_mult_76_n3
*644 DP_mult_76_n2
*645 DP_mult_76_G2_n274
*646 DP_mult_76_G2_n273
*647 DP_mult_76_G2_n272
*648 DP_mult_76_G2_n271
*649 DP_mult_76_G2_n270
*650 DP_mult_76_G2_n269
*651 DP_mult_76_G2_n268
*652 DP_mult_76_G2_n267
*653 DP_mult_76_G2_n266
*654 DP_mult_76_G2_n265
*655 DP_mult_76_G2_n264
*656 DP_mult_76_G2_n263
*657 DP_mult_76_G2_n262
*658 DP_mult_76_G2_n261
*659 DP_mult_76_G2_n260
*660 DP_mult_76_G2_n259
*661 DP_mult_76_G2_n258
*662 DP_mult_76_G2_n257
*663 DP_mult_76_G2_n256
*664 DP_mult_76_G2_n255
*665 DP_mult_76_G2_n254
*666 DP_mult_76_G2_n253
*667 DP_mult_76_G2_n252
*668 DP_mult_76_G2_n251
*669 DP_mult_76_G2_n250
*670 DP_mult_76_G2_n249
*671 DP_mult_76_G2_n248
*672 DP_mult_76_G2_n247
*673 DP_mult_76_G2_n246
*674 DP_mult_76_G2_n245
*675 DP_mult_76_G2_n244
*676 DP_mult_76_G2_n243
*677 DP_mult_76_G2_n242
*678 DP_mult_76_G2_n241
*679 DP_mult_76_G2_n240
*680 DP_mult_76_G2_n239
*681 DP_mult_76_G2_n238
*682 DP_mult_76_G2_n237
*683 DP_mult_76_G2_n236
*684 DP_mult_76_G2_n235
*685 DP_mult_76_G2_n234
*686 DP_mult_76_G2_n233
*687 DP_mult_76_G2_n232
*688 DP_mult_76_G2_n231
*689 DP_mult_76_G2_n230
*690 DP_mult_76_G2_n229
*691 DP_mult_76_G2_n228
*692 DP_mult_76_G2_n227
*693 DP_mult_76_G2_n226
*694 DP_mult_76_G2_n225
*695 DP_mult_76_G2_n224
*696 DP_mult_76_G2_n223
*697 DP_mult_76_G2_n222
*698 DP_mult_76_G2_n221
*699 DP_mult_76_G2_n220
*700 DP_mult_76_G2_n219
*701 DP_mult_76_G2_n218
*702 DP_mult_76_G2_n217
*703 DP_mult_76_G2_n216
*704 DP_mult_76_G2_n215
*705 DP_mult_76_G2_n214
*706 DP_mult_76_G2_n213
*707 DP_mult_76_G2_n212
*708 DP_mult_76_G2_n211
*709 DP_mult_76_G2_n210
*710 DP_mult_76_G2_n209
*711 DP_mult_76_G2_n208
*712 DP_mult_76_G2_n207
*713 DP_mult_76_G2_n206
*714 DP_mult_76_G2_n205
*715 DP_mult_76_G2_n204
*716 DP_mult_76_G2_n203
*717 DP_mult_76_G2_n202
*718 DP_mult_76_G2_n201
*719 DP_mult_76_G2_n200
*720 DP_mult_76_G2_n199
*721 DP_mult_76_G2_n198
*722 DP_mult_76_G2_n197
*723 DP_mult_76_G2_n101
*724 DP_mult_76_G2_n100
*725 DP_mult_76_G2_n99
*726 DP_mult_76_G2_n98
*727 DP_mult_76_G2_n97
*728 DP_mult_76_G2_n94
*729 DP_mult_76_G2_n93
*730 DP_mult_76_G2_n92
*731 DP_mult_76_G2_n91
*732 DP_mult_76_G2_n90
*733 DP_mult_76_G2_n88
*734 DP_mult_76_G2_n87
*735 DP_mult_76_G2_n86
*736 DP_mult_76_G2_n85
*737 DP_mult_76_G2_n84
*738 DP_mult_76_G2_n83
*739 DP_mult_76_G2_n82
*740 DP_mult_76_G2_n81
*741 DP_mult_76_G2_n79
*742 DP_mult_76_G2_n78
*743 DP_mult_76_G2_n76
*744 DP_mult_76_G2_n75
*745 DP_mult_76_G2_n74
*746 DP_mult_76_G2_n73
*747 DP_mult_76_G2_n69
*748 DP_mult_76_G2_n68
*749 DP_mult_76_G2_n56
*750 DP_mult_76_G2_n55
*751 DP_mult_76_G2_n54
*752 DP_mult_76_G2_n53
*753 DP_mult_76_G2_n52
*754 DP_mult_76_G2_n51
*755 DP_mult_76_G2_n50
*756 DP_mult_76_G2_n49
*757 DP_mult_76_G2_n48
*758 DP_mult_76_G2_n47
*759 DP_mult_76_G2_n46
*760 DP_mult_76_G2_n45
*761 DP_mult_76_G2_n44
*762 DP_mult_76_G2_n43
*763 DP_mult_76_G2_n42
*764 DP_mult_76_G2_n41
*765 DP_mult_76_G2_n40
*766 DP_mult_76_G2_n39
*767 DP_mult_76_G2_n38
*768 DP_mult_76_G2_n37
*769 DP_mult_76_G2_n36
*770 DP_mult_76_G2_n35
*771 DP_mult_76_G2_n34
*772 DP_mult_76_G2_n33
*773 DP_mult_76_G2_n32
*774 DP_mult_76_G2_n30
*775 DP_mult_76_G2_n29
*776 DP_mult_76_G2_n28
*777 DP_mult_76_G2_n27
*778 DP_mult_76_G2_n26
*779 DP_mult_76_G2_n25
*780 DP_mult_76_G2_n24
*781 DP_mult_76_G2_n23
*782 DP_mult_76_G2_n21
*783 DP_mult_76_G2_n20
*784 DP_mult_76_G2_n19
*785 DP_mult_76_G2_n18
*786 DP_mult_76_G2_n17
*787 DP_mult_76_G2_n16
*788 DP_mult_76_G2_n9
*789 DP_mult_76_G2_n8
*790 DP_mult_76_G2_n7
*791 DP_mult_76_G2_n6
*792 DP_mult_76_G2_n5
*793 DP_mult_76_G2_n4
*794 DP_mult_76_G2_n3
*795 DP_mult_76_G2_n2
*796 DP_mult_76_G3_n274
*797 DP_mult_76_G3_n273
*798 DP_mult_76_G3_n272
*799 DP_mult_76_G3_n271
*800 DP_mult_76_G3_n270
*801 DP_mult_76_G3_n269
*802 DP_mult_76_G3_n268
*803 DP_mult_76_G3_n267
*804 DP_mult_76_G3_n266
*805 DP_mult_76_G3_n265
*806 DP_mult_76_G3_n264
*807 DP_mult_76_G3_n263
*808 DP_mult_76_G3_n262
*809 DP_mult_76_G3_n261
*810 DP_mult_76_G3_n260
*811 DP_mult_76_G3_n259
*812 DP_mult_76_G3_n258
*813 DP_mult_76_G3_n257
*814 DP_mult_76_G3_n256
*815 DP_mult_76_G3_n255
*816 DP_mult_76_G3_n254
*817 DP_mult_76_G3_n253
*818 DP_mult_76_G3_n252
*819 DP_mult_76_G3_n251
*820 DP_mult_76_G3_n250
*821 DP_mult_76_G3_n249
*822 DP_mult_76_G3_n248
*823 DP_mult_76_G3_n247
*824 DP_mult_76_G3_n246
*825 DP_mult_76_G3_n245
*826 DP_mult_76_G3_n244
*827 DP_mult_76_G3_n243
*828 DP_mult_76_G3_n242
*829 DP_mult_76_G3_n241
*830 DP_mult_76_G3_n240
*831 DP_mult_76_G3_n239
*832 DP_mult_76_G3_n238
*833 DP_mult_76_G3_n237
*834 DP_mult_76_G3_n236
*835 DP_mult_76_G3_n235
*836 DP_mult_76_G3_n234
*837 DP_mult_76_G3_n233
*838 DP_mult_76_G3_n232
*839 DP_mult_76_G3_n231
*840 DP_mult_76_G3_n230
*841 DP_mult_76_G3_n229
*842 DP_mult_76_G3_n228
*843 DP_mult_76_G3_n227
*844 DP_mult_76_G3_n226
*845 DP_mult_76_G3_n225
*846 DP_mult_76_G3_n224
*847 DP_mult_76_G3_n223
*848 DP_mult_76_G3_n222
*849 DP_mult_76_G3_n221
*850 DP_mult_76_G3_n220
*851 DP_mult_76_G3_n219
*852 DP_mult_76_G3_n218
*853 DP_mult_76_G3_n217
*854 DP_mult_76_G3_n216
*855 DP_mult_76_G3_n215
*856 DP_mult_76_G3_n214
*857 DP_mult_76_G3_n213
*858 DP_mult_76_G3_n212
*859 DP_mult_76_G3_n211
*860 DP_mult_76_G3_n210
*861 DP_mult_76_G3_n209
*862 DP_mult_76_G3_n208
*863 DP_mult_76_G3_n207
*864 DP_mult_76_G3_n206
*865 DP_mult_76_G3_n205
*866 DP_mult_76_G3_n204
*867 DP_mult_76_G3_n203
*868 DP_mult_76_G3_n202
*869 DP_mult_76_G3_n201
*870 DP_mult_76_G3_n200
*871 DP_mult_76_G3_n199
*872 DP_mult_76_G3_n198
*873 DP_mult_76_G3_n197
*874 DP_mult_76_G3_n101
*875 DP_mult_76_G3_n100
*876 DP_mult_76_G3_n99
*877 DP_mult_76_G3_n98
*878 DP_mult_76_G3_n97
*879 DP_mult_76_G3_n94
*880 DP_mult_76_G3_n93
*881 DP_mult_76_G3_n92
*882 DP_mult_76_G3_n91
*883 DP_mult_76_G3_n90
*884 DP_mult_76_G3_n88
*885 DP_mult_76_G3_n87
*886 DP_mult_76_G3_n86
*887 DP_mult_76_G3_n85
*888 DP_mult_76_G3_n84
*889 DP_mult_76_G3_n83
*890 DP_mult_76_G3_n82
*891 DP_mult_76_G3_n81
*892 DP_mult_76_G3_n79
*893 DP_mult_76_G3_n78
*894 DP_mult_76_G3_n76
*895 DP_mult_76_G3_n75
*896 DP_mult_76_G3_n74
*897 DP_mult_76_G3_n73
*898 DP_mult_76_G3_n69
*899 DP_mult_76_G3_n68
*900 DP_mult_76_G3_n56
*901 DP_mult_76_G3_n55
*902 DP_mult_76_G3_n54
*903 DP_mult_76_G3_n53
*904 DP_mult_76_G3_n52
*905 DP_mult_76_G3_n51
*906 DP_mult_76_G3_n50
*907 DP_mult_76_G3_n49
*908 DP_mult_76_G3_n48
*909 DP_mult_76_G3_n47
*910 DP_mult_76_G3_n46
*911 DP_mult_76_G3_n45
*912 DP_mult_76_G3_n44
*913 DP_mult_76_G3_n43
*914 DP_mult_76_G3_n42
*915 DP_mult_76_G3_n41
*916 DP_mult_76_G3_n40
*917 DP_mult_76_G3_n39
*918 DP_mult_76_G3_n38
*919 DP_mult_76_G3_n37
*920 DP_mult_76_G3_n36
*921 DP_mult_76_G3_n35
*922 DP_mult_76_G3_n34
*923 DP_mult_76_G3_n33
*924 DP_mult_76_G3_n32
*925 DP_mult_76_G3_n30
*926 DP_mult_76_G3_n29
*927 DP_mult_76_G3_n28
*928 DP_mult_76_G3_n27
*929 DP_mult_76_G3_n26
*930 DP_mult_76_G3_n25
*931 DP_mult_76_G3_n24
*932 DP_mult_76_G3_n23
*933 DP_mult_76_G3_n21
*934 DP_mult_76_G3_n20
*935 DP_mult_76_G3_n19
*936 DP_mult_76_G3_n18
*937 DP_mult_76_G3_n17
*938 DP_mult_76_G3_n16
*939 DP_mult_76_G3_n9
*940 DP_mult_76_G3_n8
*941 DP_mult_76_G3_n7
*942 DP_mult_76_G3_n6
*943 DP_mult_76_G3_n5
*944 DP_mult_76_G3_n4
*945 DP_mult_76_G3_n3
*946 DP_mult_76_G3_n2
*947 DP_mult_76_G9_n274
*948 DP_mult_76_G9_n273
*949 DP_mult_76_G9_n272
*950 DP_mult_76_G9_n271
*951 DP_mult_76_G9_n270
*952 DP_mult_76_G9_n269
*953 DP_mult_76_G9_n268
*954 DP_mult_76_G9_n267
*955 DP_mult_76_G9_n266
*956 DP_mult_76_G9_n265
*957 DP_mult_76_G9_n264
*958 DP_mult_76_G9_n263
*959 DP_mult_76_G9_n262
*960 DP_mult_76_G9_n261
*961 DP_mult_76_G9_n260
*962 DP_mult_76_G9_n259
*963 DP_mult_76_G9_n258
*964 DP_mult_76_G9_n257
*965 DP_mult_76_G9_n256
*966 DP_mult_76_G9_n255
*967 DP_mult_76_G9_n254
*968 DP_mult_76_G9_n253
*969 DP_mult_76_G9_n252
*970 DP_mult_76_G9_n251
*971 DP_mult_76_G9_n250
*972 DP_mult_76_G9_n249
*973 DP_mult_76_G9_n248
*974 DP_mult_76_G9_n247
*975 DP_mult_76_G9_n246
*976 DP_mult_76_G9_n245
*977 DP_mult_76_G9_n244
*978 DP_mult_76_G9_n243
*979 DP_mult_76_G9_n242
*980 DP_mult_76_G9_n241
*981 DP_mult_76_G9_n240
*982 DP_mult_76_G9_n239
*983 DP_mult_76_G9_n238
*984 DP_mult_76_G9_n237
*985 DP_mult_76_G9_n236
*986 DP_mult_76_G9_n235
*987 DP_mult_76_G9_n234
*988 DP_mult_76_G9_n233
*989 DP_mult_76_G9_n232
*990 DP_mult_76_G9_n231
*991 DP_mult_76_G9_n230
*992 DP_mult_76_G9_n229
*993 DP_mult_76_G9_n228
*994 DP_mult_76_G9_n227
*995 DP_mult_76_G9_n226
*996 DP_mult_76_G9_n225
*997 DP_mult_76_G9_n224
*998 DP_mult_76_G9_n223
*999 DP_mult_76_G9_n222
*1000 DP_mult_76_G9_n221
*1001 DP_mult_76_G9_n220
*1002 DP_mult_76_G9_n219
*1003 DP_mult_76_G9_n218
*1004 DP_mult_76_G9_n217
*1005 DP_mult_76_G9_n216
*1006 DP_mult_76_G9_n215
*1007 DP_mult_76_G9_n214
*1008 DP_mult_76_G9_n213
*1009 DP_mult_76_G9_n212
*1010 DP_mult_76_G9_n211
*1011 DP_mult_76_G9_n210
*1012 DP_mult_76_G9_n209
*1013 DP_mult_76_G9_n208
*1014 DP_mult_76_G9_n207
*1015 DP_mult_76_G9_n206
*1016 DP_mult_76_G9_n205
*1017 DP_mult_76_G9_n204
*1018 DP_mult_76_G9_n203
*1019 DP_mult_76_G9_n202
*1020 DP_mult_76_G9_n201
*1021 DP_mult_76_G9_n200
*1022 DP_mult_76_G9_n199
*1023 DP_mult_76_G9_n198
*1024 DP_mult_76_G9_n197
*1025 DP_mult_76_G9_n101
*1026 DP_mult_76_G9_n100
*1027 DP_mult_76_G9_n99
*1028 DP_mult_76_G9_n98
*1029 DP_mult_76_G9_n97
*1030 DP_mult_76_G9_n94
*1031 DP_mult_76_G9_n93
*1032 DP_mult_76_G9_n92
*1033 DP_mult_76_G9_n91
*1034 DP_mult_76_G9_n90
*1035 DP_mult_76_G9_n88
*1036 DP_mult_76_G9_n87
*1037 DP_mult_76_G9_n86
*1038 DP_mult_76_G9_n85
*1039 DP_mult_76_G9_n84
*1040 DP_mult_76_G9_n83
*1041 DP_mult_76_G9_n82
*1042 DP_mult_76_G9_n81
*1043 DP_mult_76_G9_n79
*1044 DP_mult_76_G9_n78
*1045 DP_mult_76_G9_n76
*1046 DP_mult_76_G9_n75
*1047 DP_mult_76_G9_n74
*1048 DP_mult_76_G9_n73
*1049 DP_mult_76_G9_n69
*1050 DP_mult_76_G9_n68
*1051 DP_mult_76_G9_n56
*1052 DP_mult_76_G9_n55
*1053 DP_mult_76_G9_n54
*1054 DP_mult_76_G9_n53
*1055 DP_mult_76_G9_n52
*1056 DP_mult_76_G9_n51
*1057 DP_mult_76_G9_n50
*1058 DP_mult_76_G9_n49
*1059 DP_mult_76_G9_n48
*1060 DP_mult_76_G9_n47
*1061 DP_mult_76_G9_n46
*1062 DP_mult_76_G9_n45
*1063 DP_mult_76_G9_n44
*1064 DP_mult_76_G9_n43
*1065 DP_mult_76_G9_n42
*1066 DP_mult_76_G9_n41
*1067 DP_mult_76_G9_n40
*1068 DP_mult_76_G9_n39
*1069 DP_mult_76_G9_n38
*1070 DP_mult_76_G9_n37
*1071 DP_mult_76_G9_n36
*1072 DP_mult_76_G9_n35
*1073 DP_mult_76_G9_n34
*1074 DP_mult_76_G9_n33
*1075 DP_mult_76_G9_n32
*1076 DP_mult_76_G9_n30
*1077 DP_mult_76_G9_n29
*1078 DP_mult_76_G9_n28
*1079 DP_mult_76_G9_n27
*1080 DP_mult_76_G9_n26
*1081 DP_mult_76_G9_n25
*1082 DP_mult_76_G9_n24
*1083 DP_mult_76_G9_n23
*1084 DP_mult_76_G9_n21
*1085 DP_mult_76_G9_n20
*1086 DP_mult_76_G9_n19
*1087 DP_mult_76_G9_n18
*1088 DP_mult_76_G9_n17
*1089 DP_mult_76_G9_n16
*1090 DP_mult_76_G9_n9
*1091 DP_mult_76_G9_n8
*1092 DP_mult_76_G9_n7
*1093 DP_mult_76_G9_n6
*1094 DP_mult_76_G9_n5
*1095 DP_mult_76_G9_n4
*1096 DP_mult_76_G9_n3
*1097 DP_mult_76_G9_n2
*1098 DP_mult_76_G7_n274
*1099 DP_mult_76_G7_n273
*1100 DP_mult_76_G7_n272
*1101 DP_mult_76_G7_n271
*1102 DP_mult_76_G7_n270
*1103 DP_mult_76_G7_n269
*1104 DP_mult_76_G7_n268
*1105 DP_mult_76_G7_n267
*1106 DP_mult_76_G7_n266
*1107 DP_mult_76_G7_n265
*1108 DP_mult_76_G7_n264
*1109 DP_mult_76_G7_n263
*1110 DP_mult_76_G7_n262
*1111 DP_mult_76_G7_n261
*1112 DP_mult_76_G7_n260
*1113 DP_mult_76_G7_n259
*1114 DP_mult_76_G7_n258
*1115 DP_mult_76_G7_n257
*1116 DP_mult_76_G7_n256
*1117 DP_mult_76_G7_n255
*1118 DP_mult_76_G7_n254
*1119 DP_mult_76_G7_n253
*1120 DP_mult_76_G7_n252
*1121 DP_mult_76_G7_n251
*1122 DP_mult_76_G7_n250
*1123 DP_mult_76_G7_n249
*1124 DP_mult_76_G7_n248
*1125 DP_mult_76_G7_n247
*1126 DP_mult_76_G7_n246
*1127 DP_mult_76_G7_n245
*1128 DP_mult_76_G7_n244
*1129 DP_mult_76_G7_n243
*1130 DP_mult_76_G7_n242
*1131 DP_mult_76_G7_n241
*1132 DP_mult_76_G7_n240
*1133 DP_mult_76_G7_n239
*1134 DP_mult_76_G7_n238
*1135 DP_mult_76_G7_n237
*1136 DP_mult_76_G7_n236
*1137 DP_mult_76_G7_n235
*1138 DP_mult_76_G7_n234
*1139 DP_mult_76_G7_n233
*1140 DP_mult_76_G7_n232
*1141 DP_mult_76_G7_n231
*1142 DP_mult_76_G7_n230
*1143 DP_mult_76_G7_n229
*1144 DP_mult_76_G7_n228
*1145 DP_mult_76_G7_n227
*1146 DP_mult_76_G7_n226
*1147 DP_mult_76_G7_n225
*1148 DP_mult_76_G7_n224
*1149 DP_mult_76_G7_n223
*1150 DP_mult_76_G7_n222
*1151 DP_mult_76_G7_n221
*1152 DP_mult_76_G7_n220
*1153 DP_mult_76_G7_n219
*1154 DP_mult_76_G7_n218
*1155 DP_mult_76_G7_n217
*1156 DP_mult_76_G7_n216
*1157 DP_mult_76_G7_n215
*1158 DP_mult_76_G7_n214
*1159 DP_mult_76_G7_n213
*1160 DP_mult_76_G7_n212
*1161 DP_mult_76_G7_n211
*1162 DP_mult_76_G7_n210
*1163 DP_mult_76_G7_n209
*1164 DP_mult_76_G7_n208
*1165 DP_mult_76_G7_n207
*1166 DP_mult_76_G7_n206
*1167 DP_mult_76_G7_n205
*1168 DP_mult_76_G7_n204
*1169 DP_mult_76_G7_n203
*1170 DP_mult_76_G7_n202
*1171 DP_mult_76_G7_n201
*1172 DP_mult_76_G7_n200
*1173 DP_mult_76_G7_n199
*1174 DP_mult_76_G7_n198
*1175 DP_mult_76_G7_n197
*1176 DP_mult_76_G7_n101
*1177 DP_mult_76_G7_n100
*1178 DP_mult_76_G7_n99
*1179 DP_mult_76_G7_n98
*1180 DP_mult_76_G7_n97
*1181 DP_mult_76_G7_n94
*1182 DP_mult_76_G7_n93
*1183 DP_mult_76_G7_n92
*1184 DP_mult_76_G7_n91
*1185 DP_mult_76_G7_n90
*1186 DP_mult_76_G7_n88
*1187 DP_mult_76_G7_n87
*1188 DP_mult_76_G7_n86
*1189 DP_mult_76_G7_n85
*1190 DP_mult_76_G7_n84
*1191 DP_mult_76_G7_n83
*1192 DP_mult_76_G7_n82
*1193 DP_mult_76_G7_n81
*1194 DP_mult_76_G7_n79
*1195 DP_mult_76_G7_n78
*1196 DP_mult_76_G7_n76
*1197 DP_mult_76_G7_n75
*1198 DP_mult_76_G7_n74
*1199 DP_mult_76_G7_n73
*1200 DP_mult_76_G7_n69
*1201 DP_mult_76_G7_n68
*1202 DP_mult_76_G7_n56
*1203 DP_mult_76_G7_n55
*1204 DP_mult_76_G7_n54
*1205 DP_mult_76_G7_n53
*1206 DP_mult_76_G7_n52
*1207 DP_mult_76_G7_n51
*1208 DP_mult_76_G7_n50
*1209 DP_mult_76_G7_n49
*1210 DP_mult_76_G7_n48
*1211 DP_mult_76_G7_n47
*1212 DP_mult_76_G7_n46
*1213 DP_mult_76_G7_n45
*1214 DP_mult_76_G7_n44
*1215 DP_mult_76_G7_n43
*1216 DP_mult_76_G7_n42
*1217 DP_mult_76_G7_n41
*1218 DP_mult_76_G7_n40
*1219 DP_mult_76_G7_n39
*1220 DP_mult_76_G7_n38
*1221 DP_mult_76_G7_n37
*1222 DP_mult_76_G7_n36
*1223 DP_mult_76_G7_n35
*1224 DP_mult_76_G7_n34
*1225 DP_mult_76_G7_n33
*1226 DP_mult_76_G7_n32
*1227 DP_mult_76_G7_n30
*1228 DP_mult_76_G7_n29
*1229 DP_mult_76_G7_n28
*1230 DP_mult_76_G7_n27
*1231 DP_mult_76_G7_n26
*1232 DP_mult_76_G7_n25
*1233 DP_mult_76_G7_n24
*1234 DP_mult_76_G7_n23
*1235 DP_mult_76_G7_n21
*1236 DP_mult_76_G7_n20
*1237 DP_mult_76_G7_n19
*1238 DP_mult_76_G7_n18
*1239 DP_mult_76_G7_n17
*1240 DP_mult_76_G7_n16
*1241 DP_mult_76_G7_n9
*1242 DP_mult_76_G7_n8
*1243 DP_mult_76_G7_n7
*1244 DP_mult_76_G7_n6
*1245 DP_mult_76_G7_n5
*1246 DP_mult_76_G7_n4
*1247 DP_mult_76_G7_n3
*1248 DP_mult_76_G7_n2
*1249 DP_add_5_root_add_0_root_add_82_G7_n1
*1250 DP_mult_76_G4_n274
*1251 DP_mult_76_G4_n273
*1252 DP_mult_76_G4_n272
*1253 DP_mult_76_G4_n271
*1254 DP_mult_76_G4_n270
*1255 DP_mult_76_G4_n269
*1256 DP_mult_76_G4_n268
*1257 DP_mult_76_G4_n267
*1258 DP_mult_76_G4_n266
*1259 DP_mult_76_G4_n265
*1260 DP_mult_76_G4_n264
*1261 DP_mult_76_G4_n263
*1262 DP_mult_76_G4_n262
*1263 DP_mult_76_G4_n261
*1264 DP_mult_76_G4_n260
*1265 DP_mult_76_G4_n259
*1266 DP_mult_76_G4_n258
*1267 DP_mult_76_G4_n257
*1268 DP_mult_76_G4_n256
*1269 DP_mult_76_G4_n255
*1270 DP_mult_76_G4_n254
*1271 DP_mult_76_G4_n253
*1272 DP_mult_76_G4_n252
*1273 DP_mult_76_G4_n251
*1274 DP_mult_76_G4_n250
*1275 DP_mult_76_G4_n249
*1276 DP_mult_76_G4_n248
*1277 DP_mult_76_G4_n247
*1278 DP_mult_76_G4_n246
*1279 DP_mult_76_G4_n245
*1280 DP_mult_76_G4_n244
*1281 DP_mult_76_G4_n243
*1282 DP_mult_76_G4_n242
*1283 DP_mult_76_G4_n241
*1284 DP_mult_76_G4_n240
*1285 DP_mult_76_G4_n239
*1286 DP_mult_76_G4_n238
*1287 DP_mult_76_G4_n237
*1288 DP_mult_76_G4_n236
*1289 DP_mult_76_G4_n235
*1290 DP_mult_76_G4_n234
*1291 DP_mult_76_G4_n233
*1292 DP_mult_76_G4_n232
*1293 DP_mult_76_G4_n231
*1294 DP_mult_76_G4_n230
*1295 DP_mult_76_G4_n229
*1296 DP_mult_76_G4_n228
*1297 DP_mult_76_G4_n227
*1298 DP_mult_76_G4_n226
*1299 DP_mult_76_G4_n225
*1300 DP_mult_76_G4_n224
*1301 DP_mult_76_G4_n223
*1302 DP_mult_76_G4_n222
*1303 DP_mult_76_G4_n221
*1304 DP_mult_76_G4_n220
*1305 DP_mult_76_G4_n219
*1306 DP_mult_76_G4_n218
*1307 DP_mult_76_G4_n217
*1308 DP_mult_76_G4_n216
*1309 DP_mult_76_G4_n215
*1310 DP_mult_76_G4_n214
*1311 DP_mult_76_G4_n213
*1312 DP_mult_76_G4_n212
*1313 DP_mult_76_G4_n211
*1314 DP_mult_76_G4_n210
*1315 DP_mult_76_G4_n209
*1316 DP_mult_76_G4_n208
*1317 DP_mult_76_G4_n207
*1318 DP_mult_76_G4_n206
*1319 DP_mult_76_G4_n205
*1320 DP_mult_76_G4_n204
*1321 DP_mult_76_G4_n203
*1322 DP_mult_76_G4_n202
*1323 DP_mult_76_G4_n201
*1324 DP_mult_76_G4_n200
*1325 DP_mult_76_G4_n199
*1326 DP_mult_76_G4_n198
*1327 DP_mult_76_G4_n197
*1328 DP_mult_76_G4_n101
*1329 DP_mult_76_G4_n100
*1330 DP_mult_76_G4_n99
*1331 DP_mult_76_G4_n98
*1332 DP_mult_76_G4_n97
*1333 DP_mult_76_G4_n94
*1334 DP_mult_76_G4_n93
*1335 DP_mult_76_G4_n92
*1336 DP_mult_76_G4_n91
*1337 DP_mult_76_G4_n90
*1338 DP_mult_76_G4_n88
*1339 DP_mult_76_G4_n87
*1340 DP_mult_76_G4_n86
*1341 DP_mult_76_G4_n85
*1342 DP_mult_76_G4_n84